<?xml version="1.0" encoding="UTF-8"?>

<!-- generated on 2026-06-02 17:32:45.640038 by Eclipse SUMO randomTrips.py v1.26.0
<configuration>
    <net-file value="osm.net.xml.gz"/>
    <route-file value="precalculated_routes.rou.xml"/>
    <fringe-factor value="5"/>
    <end value="1800.0"/>
</configuration>
-->

<!-- generated on 2026-06-02T17:32:42.356056+01:00 by Eclipse SUMO duarouter 1.26.0
<duarouterConfiguration xmlns:xsi="http://www.w3.org/2001/XMLSchema-instance" xsi:noNamespaceSchemaLocation="http://sumo.dlr.de/xsd/duarouterConfiguration.xsd">

    <input>
        <net-file value="osm.net.xml.gz"/>
        <route-files value="trips.trips.xml"/>
    </input>

    <output>
        <output-file value="precalculated_routes.rou.xml"/>
        <alternatives-output value="NUL"/>
    </output>

    <time>
        <begin value="0"/>
        <end value="1800.0"/>
    </time>

    <report>
        <no-warnings value="true"/>
        <ignore-errors value="true"/>
        <no-step-log value="true"/>
    </report>

</duarouterConfiguration>
-->

<routes xmlns:xsi="http://www.w3.org/2001/XMLSchema-instance" xsi:noNamespaceSchemaLocation="http://sumo.dlr.de/xsd/routes_file.xsd">
    <vehicle id="0" depart="0.00">
        <route edges="411692793#1 411692793#2 412382214#1 412382214#2 678516390#0 678516390#1 678516403#0 678516403#1 678516403#2 678516403#3 678516403#4 678516403#5 678516403#6 763263291 1370429176#0 1370429176#1 412382217#0 412382217#1 412697657 412697668#1 -411692644#4 -411692644#3 -411692644#2 -411692644#1 -411692644#0 -240883122#6 -240883122#5 -240883122#4 -240883122#3 -240883122#2 -240883122#1 867142423#3 867142423#4 643238415#0 643238415#1 643238415#2 643238415#3 -412973072#1 -412973072#0 -1486993473#0"/>
    </vehicle>
    <vehicle id="1" depart="1.00">
        <route edges="-412942401#1 -412942401#0 682462414#6 682462413 776398606 -411627076#2 -411627076#1 -776419348 1416509433#2 806173063#0 806173063#1 806173063#2 806173063#3 806173063#4 806173063#5 806173063#6 762717865#0 762717865#1 762717865#2 762717865#3 762717865#4 -411692791#2 -411692791#1 -411692791#0 -411310824#7 763269098#0 -412703929"/>
    </vehicle>
    <vehicle id="2" depart="2.00">
        <route edges="412758097#0 -411360309#0 678516382#2 678516382#3 -678499572#1 -678499572#0 1120991057#0 1120991057#1 1120991057#2 1120991057#3 1120991057#4 678499565 643238415#0 643238415#1 643238415#2 643238415#3 643238415#4 643238415#5 643238415#6 643238415#7 772820316 1486993476 240885882#0 240885882#1 240885882#2 240885882#3 240885882#4 240885882#5 240885882#6 240885882#7 240885882#8-AddedOnRampEdge 240885882#8 643238439 411713009#1 411713009#2 411713009#3 411713009#4 411713009#5 411713009#6 411713009#7 411713009#8 411713009#9 411713009#10 411713009#11 1486993480 1290129815 643238463 643238464 643065014 240886172#0 240886172#1 66539522#0 66539522#1 643065017 643065028#0 643065028#1 119858358 240886534#0 240886534#1 240886534#2 240886534#3 240886534#4 643065067#0 643065067#1 1332087805#6 643065065 240887624#0 240887624#1 240887624#2 240887624#3 240887624#4 643065059#1 240887706#0 240887706#1 240887706#2 240887706#3 240887706#4 240887706#5 240887706#6 411719214#17"/>
    </vehicle>
    <vehicle id="3" depart="3.00">
        <route edges="643433180 292875360#2 292875360#3 292875360#4 292875360#5 292875360#6 292875360#7 292875360#8 292875360#9 292875360#10 292875360#11 292875360#12 292875360#13 292875360#14 643064986#1 1121189505#0 643107166#5 643107166#6 643107166#7 643107166#8 632644009#0 632644009#1 682462414#0 682462414#1 682462414#2 682462414#3 682462414#4 682462414#5 682462414#6 -762720321#1 -762720321#0 -411692678#3 -411692678#2 -411692678#1 -411692678#0 -411660390#8 -411360337#1 -411360337#0"/>
    </vehicle>
    <vehicle id="4" depart="4.00">
        <route edges="-762991215#1 -293569911#3 -293569911#2 -293569911#1 -293569911#0 -1486993456#2 -1486993456#1 -1486993456#0 1486993457 643107217 1486993460#0 1486993460#1 643107220#0 643107220#1 643107220#2 1332087802#8-AddedOnRampEdge 1332087802#8 1332087802#9 643107207#0 643107207#1 643107207#2 643107207#3 643107207#3-AddedOffRampEdge 643107207#4 643107199 790225652 790225652-AddedOffRampEdge 643107184 643107183 643107185 643107193#1 643107193#2 643107193#3 1068289389 1068289388#1 1068289388#2 1068289388#3 1068289388#4 29206069#1 -29206069#1 -29206069#0"/>
    </vehicle>
    <vehicle id="5" depart="5.00">
        <route edges="-412703908#5 -412703908#4 -411310827#0 411360351#2 411360351#3 643065093#0 643065093#1 412782992#0 412782992#1 412782992#2 412782992#3 412782992#4 643064978#0 643064978#1 643064977#0 643064977#1 643065091 1332087797#0 1332087797#1 1332087797#2 1332087797#3 293569892#0 293569892#1 1486993465 1486993464 1486993462 772820318#0 772820318#1 772820318#2 293569895#0 293569895#1 643238407 243461251 544391478#0 643238425 -412382216#3 -412382216#2 -412382216#1 -412382216#0 -412382244#2 -412382244#1 411360298#3 411360298#4 1416510006#0"/>
    </vehicle>
    <vehicle id="6" depart="6.00">
        <route edges="-1416509433#2 776419348 411627076#1 411627076#2 966858345#0 966858345#1 966858345#2-AddedOnRampEdge 966858345#2 966858345#3 411627070#9 682462414#3 682462414#4 682462414#5 412942401#0 412942401#1 1120970958#0 1120970958#1 -643065030#3 -643065030#2 -643065030#1 -643065029 -1332084891#2 -1332084891#0 -1332084890 -119858358 -119858384 -643065028#0 643065018 643065027#1 643065027#2 643065027#3 643065027#4 240885951#3 -643065014 -643238464 -412755615#4 -412755615#3 -412755615#2 411692650#0 411692650#1 -643238467#2 -643238467#1 -643238467#0 -411360301#1 -412782922#8 -412782922#7 -412782922#6 -412782922#5 -412782922#4 -412782922#3 -412782922#2 -412782922#1 -412782922#0 -1370429173#3 -1370429173#2 -1370429173#1 -1370429173#0 -412382192#4 -412382192#3 -412382192#2"/>
    </vehicle>
    <vehicle id="7" depart="7.00">
        <route edges="411713021 411658433#2 1120970959#1 1120970959#2 411712992#0 411712992#1 411712992#2 1332082359#1 1332082359#2 1332082358 643107193#0 643107193#1 643107182 772820319-AddedOnRampEdge 772820319 643107180#0 643107180#1 412942378#0-AddedOnRampEdge 412942378#0 412942378#1 412942378#2 412942378#3 412942378#4 412942378#5 412942378#6 412942378#7 412942378#8 412942378#9 867146907 643107208#0 643107208#1 643107234#0 643107210 66539518#24 66539518#25 643107218#0 643107218#1 -1486993457 -1486993458 -1486993454 -293569899#1 -293569899#0 293569892#0 293569892#1 1486993465 1486993464 1486993462 772820318#0 772820318#1 772820318#2 293569895#0 293569895#1 643433157 1486993469-AddedOnRampEdge 1486993469 293569941#0 293569941#1 293569941#2"/>
    </vehicle>
    <vehicle id="8" depart="8.00">
        <route edges="-412703933#1 -412703933#0 1332080052 776653148 643065073#4 643065073#5 643065073#6 240887624#0 240887624#1 240887624#2 240887624#3 240887624#4 776162345#0 776162345#1 377950330#0 377950330#1 643065055#0 643065055#1 643065055#2 643065055#3 643065055#4 643065047 643065046 -411310035#7 -411310035#6 -411310035#5 -411310035#4 -411310035#3 -411310035#2 411360353#2"/>
    </vehicle>
    <vehicle id="9" depart="9.00">
        <route edges="412973069#1 411360346#3 411360346#4 240883122#0 867142423#3 867142423#4 643238415#0 643238415#1 643238415#2 643238415#3 643238415#4 643238415#5 643238415#6 643238415#7 772820316 1486993476 240885882#0 240885882#1 240885882#2 869965479#0 -411713042#0 -1183581703#1 -1183581703#0"/>
    </vehicle>
    <vehicle id="10" depart="10.00">
        <route edges="412973053 412942359#4 765287897 412973044#0 412973044#1 412973044#2 643238419#2 643238419#3 776148416#0 776148416#1 776148416#2 412973078#2 412973078#3 377950344 1069223780#0 412382194#0"/>
    </vehicle>
    <vehicle id="11" depart="11.00">
        <route edges="-643065034#0 643065038#0 643065073#13 643065073#14 643065073#15 643065073#16 643065030#0 643065030#2 643065030#3 -1120970958#1 -1120970958#0 966858344 682462413 776398606 -411627076#2 -411627076#1 -776419348 -1416509433#1 -411692796#3 -411692796#2"/>
    </vehicle>
    <vehicle id="12" depart="12.00">
        <route edges="762717865#4 762717865#5 762717865#6 762717865#7 762717865#8 762717865#9 411310834 412942320#0 412942320#1 412942320#2 412942320#3 411360351#0 411360351#1 411360351#2 411360351#3 643065093#0 643065093#1 412782992#0 412782992#1 412782992#2 412782992#3 412782992#4 643064978#0 643064978#1 643064977#0 643064977#1 643065091 1332087797#0 1332087797#1 1332087797#2 1332087797#3 293569892#0 293569892#1 1486993465 1486993464 1486993462 772820318#0 772820318#1 772820318#2 293569895#0 293569895#1 643238407 243461251 544391478#0 544391478#1 544391478#2 643238422#0 643238422#1 643238422#2 643238422#3 240883043#0 240883043#1 240883122#0 240883122#1 240883122#2 240883122#3 240883122#4 240883122#5 240883122#6 411692644#0 411692644#1 411692644#2 411692644#3 411692644#4 437885487#0 437885487#1 -1370429176#1 -1370429176#0 -763263291 -678516403#6 -678516403#5 413073674 413073731#0 413073731#1 413073731#2 413073731#3 413073731#4 413073731#5 413073731#6 413073731#7 413073706#0 413073706#1 413073706#2 413073706#3 -413073706#3 -413073706#2"/>
    </vehicle>
    <vehicle id="13" depart="13.00">
        <route edges="-411360347 412942399#1 -240883122#3 -240883122#2 -240883122#1 867142423#3 867142423#4 643238415#0 643238415#1 643238415#2 643238415#3 643238415#4 643238415#5 643238415#6 643238415#7 772820316 1486993476 1486993475 772820315#0 643238433 643238411 1486993469-AddedOnRampEdge 1486993469 -1332084889#5 -1332084889#4 -1332084889#3 -1332084889#2 -1332084889#1 -1332084889#0 -1486993467 -243461250 643433200 243460866#0 243460866#0-AddedOffRampEdge 243460866#1 243460866#2 243460866#3 243460866#3-AddedOffRampEdge 643433205 292875373#0 292875373#1 643064999 1486993487 643065000#1 643064995 292875371#0 292875371#1 682462414#0 682462414#1 682462414#2 682462414#3 682462414#4 682462414#5 682462414#6 -762720321#1 -762720321#0 -411692678#3 -411692678#2 -411692678#1 -411692678#0 -411660390#8 -411660390#7 -411660390#6 776135727#0 776135727#1 776135727#2 776135727#3 776135727#4 776135727#5 776135727#6 -411627061#5"/>
    </vehicle>
    <vehicle id="14" depart="14.00">
        <route edges="631286520#0 413073802 -119858362#0 -643077746#1 -643077746#0 413073723 643077741 1068289386 827120438#1 827120438#2 827120437 678499575 240880538#0 240880538#1 240880538#2 240880538#3 240880538#4 240880538#5 240880538#6 240880538#7 240880538#8 240880538#9 240880538#10 240880538#11 240880538#12 240880538#13 240880538#14 240880538#15 240880538#16 240880538#17 240880538#18 240880538#19 1120991057#0 1120991057#1 1120991057#2 1120991057#3 1120991057#4 678499565 643238415#0 643238415#1 643238415#2 643238415#3 643238415#4 643238415#5 643238415#6 643238415#7 772820316 1486993476 240885882#0 240885882#1 240885882#2 240885882#3 240885882#4 240885882#5 240885882#6 240885882#7 240885882#8-AddedOnRampEdge 240885882#8 643238439 411713009#1 411713009#2 411713009#3 411713009#4 411713009#5 411713009#6 411713009#7 411713009#8 411713009#9 411713009#10 411713009#11 1486993480 1290129815 643238463 643238464 643065014 240886172#0 240886172#1 66539522#0 66539522#1 643065017 643065028#0 643065028#1 119858358 240886534#0 240886534#1 240886534#2 240886534#3 240886534#4 643065067#0 643065067#1 1332087805#6 643065065 240887624#0 240887624#1 240887624#2 240887624#3 240887624#4 776162345#0 776162345#1 377950330#0 377950330#1 643065055#0 643065055#1 643065055#2 643065055#3 643065055#4 643065047 643065046 -411310035#7 -411310035#6 -411310035#5 -411310035#4 -411310035#3 -411310035#2 -411310035#1 -411310035#0 -1370429190#1 -1370429190#0 -643065043#4 -643065043#3 -643065043#2 -643065043#1 -643065043#0 775173507 413073900#1 644379453#0 644379453#1 411627136#4"/>
    </vehicle>
    <vehicle id="15" depart="15.00">
        <route edges="412973058#2 -412973058#2 -412973058#1 -411719205#4 -412782961#0 -643064991#0 412782965#0 1332084894#0 1332084894#1 1332087794#6 632644009#0 632644009#1 682462414#0 682462414#1 682462414#2 682462414#3 682462414#4 682462414#5 682462414#6 -762720321#1 -762720321#0 -411692678#3 -411692678#2 -411692678#1 -411692678#0 -411660390#8 -411660390#7 -411660390#6 -411660390#5 -762727024#5 -762727024#4 -1073067589#6 -412755592 -412755623#1 412755588#0"/>
    </vehicle>
    <vehicle id="16" depart="16.00">
        <route edges="293569981#5 293569968#2 293569968#3 293569968#4 293569968#5 293569968#6 293569968#7 293569968#8 293569968#9 293569968#10 293569968#11 293569968#12 -1388830756#2 -1388830756#1 -1388830756#0 -1388830750#1 -1388830750#0 -1388830753 -1388830754 -1388830755 -1388830757 -412126686#1 -412126686#0 -413073810#1 -413073810#0 -643433153#2 -643433153#1 -643433153#0 -772820314#2 -772820314#1 -772820314#0 643433154#0 643433160 293569895#1 643238407 243461251 544391478#0 544391478#1 544391478#2 772820317 772820316 1486993476 240885882#0 240885882#1 240885882#2 240885882#3 240885882#4 240885882#5 240885882#6 240885882#7 240885882#8-AddedOnRampEdge 240885882#8 643238439 411713009#1 411713009#2 411713009#3 411713009#4 411713009#5 411713009#6 411713009#7 411713009#8 411713009#9 411713009#10 411713009#11 1486993480 1290129815 643238463 -412755615#4 -412755615#3 -412755615#2 411692650#0 411692650#1 643238467#3 763268907 763268906 763264919#1"/>
    </vehicle>
    <vehicle id="17" depart="17.00">
        <route edges="-678499542 678499547#5 678499547#6 678499547#7 412947977#16 412947977#17 678499579 -827120438#2 -827120438#1 -827120438#0 -776450468 -132985760 299921455#0 299921455#1 66539518#1-AddedOnRampEdge 66539518#1 643107232#0 643107232#1 643107230 1120735350 293569978 293569975#5 293569977#1"/>
    </vehicle>
    <vehicle id="18" depart="18.00">
        <route edges="413073669#4 -411692730#1 -411692730#0 -631286537 -772820310#1 -772820310#0 -678516439#1 -678516439#0 1357824556#2 1357824552 412943623#0 412943623#1 412943623#2 412943623#3 412943623#4 643238457 763263280#0 763263280#1 412697651#0 412697651#1 412697651#2 -631286498#7 -631286498#6 -631286498#5 -631286498#4 -631286498#3 -631286498#2 -631286498#1 -631286498#0 -1486993479#1 -1486993479#0 -643238459 1290129815 643238463 643238464 643065014 240886172#0 240886172#1 66539522#0 66539522#1 643065017 643065028#0 643065028#1 119858358 1332084890 1332084891#0 1332084891#1 643065029 643065030#0 643065030#2 643065030#3 -1120970958#1 -1120970958#0 966858344 -762720321#1 -762720321#0 -411692678#3 -411692678#2 -411692678#1 -411692678#0 -411660390#8 -411660390#7 -411660390#6 -411660390#5 -411660390#4 -411660390#3 -411660390#2 -411660390#1 -411660390#0 -762727022#2 -762727022#1 -762727022#0 -1521905285 -412755617#8 -412755617#7 -412755617#6 -412755617#5 -412755617#4 -412755617#3 -412755617#2 -412755617#1 -412755617#0 1370429188#0 -411627072#6 -411627072#5 -411627072#4 -411627072#3 -411627072#2 -411627072#1 -411627072#0 -412755611#5 -412755611#4 411627262#0 411627262#1"/>
    </vehicle>
    <vehicle id="19" depart="19.00">
        <route edges="643065055#2 -643065055#2 -643065055#1 -643065055#0 -377950330#1 -643065061#1 -643065061#0 -776135727#8 -776135727#7 -776135727#6 -776135727#5 -776135727#4 -776135727#3 -776135727#2 -776135727#1 -776135727#0 411660390#6 411660390#7 411660390#8 411692678#0 411692678#1 411692678#2 411692678#3 762720321#0 776398605 966858343 966858345#2-AddedOnRampEdge 966858345#2 966858345#3 966858345#4 966858345#5 966858345#6 292875371#4 412782965#0 412782965#1 412782965#2 412782965#3 412782965#4 412782965#5 412782965#6 412782965#7 1332087793#0 1332087793#1 1332087793#2 1332087793#3 1332087793#4 1332087793#5 1332087802#0 643064978#0 643064978#1 643064977#0 643064977#1 643065091 1332087797#0 1332087797#1 1332087797#2 1332087797#3 293569892#0 293569892#1 1486993465 1486993464 1486993462 772820318#0 772820318#1 772820318#2 293569895#0 293569895#1 643238407 243461251 544391478#0 544391478#1 544391478#2 643238422#0 643238422#1 643238422#2 1120991058#0 1120991058#1 1120991058#2 1120991058#3 -678499555 678499572#0 678499572#1 -678516382#3 -678516382#2 -678516382#1 -678516382#0 -1416510004#1 -1416510004#0 -1416510005#1 678499513#0 678499513#1 678499513#2 678499513#3 678499513#4 412947958 1226640085 1226634046#5 1226634045#0 1226634045#1 1226634045#2 1226634045#3 1226634045#4 1226634045#5 1226634045#6 1226634045#7 412947980#0 412947980#1 412947980#2 412947943#0 412947943#1 412947943#2 411360305#0 411360305#1"/>
    </vehicle>
    <vehicle id="20" depart="20.00">
        <route edges="412697664#0 -412126619#0 -413073810#0 -643433153#2 643492990 293569947#1 293569927#0 -293569946#0"/>
    </vehicle>
    <vehicle id="21" depart="21.00">
        <route edges="-412755572 -411660398#8 -411660398#7 -411660398#6 -411660398#5 -411660398#4 -411660398#3 -411660398#2 -1120970947 -643065034#1 -643065034#0 643065038#0 643065038#1 1332087805#1 1332087805#2 -643065041#1 -643065041#0 -240886534#1 -240886534#0 -119858358 -119858384 -643065028#0 643065018 643065027#1 643065027#2 643065027#3 643065027#4 240885951#3 -643065014 643065015 643238462#0 643238462#1 643065011 411712987#0 411712987#1 643238459 1486993479#0 1486993479#1 631286498#0 631286498#1 631286498#2 631286498#3 631286498#4 631286498#5 631286498#6 631286498#7 -412697651#2 -412697651#1 -412697651#0 -631286511#12 -631286511#11 -631286511#10 -631286511#9 -631286511#8 -631286511#7 -631286511#6 -631286511#5 -631286511#4 -631286511#3 -678516421#2 -678516421#1 -678516421#0 631286501 763263283#0 763263283#1 763263283#2 -412943622#7 -412943622#6 -412943622#5"/>
    </vehicle>
    <vehicle id="22" depart="22.00">
        <route edges="-411360298#2 411360298#2 411360298#3 411360298#4 763271018 412382203#0 412382203#1 412382203#2 412382203#3 412382203#4 -678499555 1120991057#0 1120991057#1 1120991057#2 1120991057#3 1120991057#4 678499565 678516443#0 678516443#1 1486993471 776123370 678499561#0 678499561#1 678499561#2 678499561#3 1357824555 1357824556#6 1357824556#7 1357824556#1 772820311 678516439#1 772820310#0 772820310#1 631286537 411692730#0 763263283#2 763263283#3 763263283#4 -776166992 -413073669#1 -413073669#0 -412755580#0"/>
    </vehicle>
    <vehicle id="23" depart="23.00">
        <route edges="-411627090#6 -411360302#2 -411360302#1 -411627125#1 -411627125#0 643065073#11 643065073#12 643065038#1 1332087805#1 1332087805#2 -643065041#1 -643065041#0 -240886534#1 -240886534#0 -119858358 -119858384 -643065028#0 643065018 643065027#1 643065027#2 412973042#0 412973042#1 -412755630#1 -412755630#0 -1332084887 643065026 -1333647454 -643238448#3 -643238448#2 -643238448#1 -643238448#0 412755603#0 412755603#1 412755603#2 412755603#3 412755603#4 1486993478 1486993477#0 1486993477#1 1486993477#2-AddedOnRampEdge 1486993477#2 1486993477#3 1486993477#4 1486993477#4-AddedOffRampEdge 1486993477#5 772820315#0 772820315#1 544391478#0 544391478#1 544391478#2 643238422#0 643238422#1 643238422#2 643238422#3 240883043#0 240883043#1 240883043#2 240883043#3 240883043#4 678516371 678516370#0 678516370#1 643238419#0 643238419#1 -412973044#2 -412973044#1 -412973044#0 -765287897 -412942359#4 -412942359#3 -412942359#2 -412942359#1 -412942359#0"/>
    </vehicle>
    <vehicle id="24" depart="24.00">
        <route edges="411692737#3 -643238419#2 -643238419#1 -643238419#0 678516369#0 678516369#1 678516368 867142423#0 867142423#1 867142423#2 867142423#3 867142423#4 643238415#0 643238415#1 643238415#2 643238415#3 643238415#4 643238415#5 643238415#6 643238415#7 772820316 1486993476 1486993475 772820315#0 643238433 643238411 1486993469-AddedOnRampEdge 1486993469 293569941#0 293569941#1 293569941#2 643433164#1 643433164#2 -1486993462 -1486993464 -1486993465 -293569892#1 -293569892#0 293569899#0 293569899#1 1486993454 1486993458 1486993457 643107217 1486993460#0 1486993460#1 643107220#0 643107220#1 643107220#2 1332087802#8-AddedOnRampEdge 1332087802#8 1332087802#9 643107207#0 643107207#1 643107207#2 643107207#3 643107207#3-AddedOffRampEdge 643107207#4 643107199 790225652 790225652-AddedOffRampEdge 643107184 643107183 411712996#0 411712996#1 411712996#2-AddedOnRampEdge 411712996#2 411712996#2-AddedOffRampEdge 411712996#3 411712996#4-AddedOnRampEdge 411712996#4 411712996#5 411712996#6 411712996#7 411712996#8 -643107176#1 -643107176#0"/>
    </vehicle>
    <vehicle id="25" depart="25.00">
        <route edges="-677194542#1 -677194541#1 -677194541#0 -677194551#0 437886169#1 437886169#2 377950351#1 377950351#2 377950351#3 377950351#4 377950351#5 1416509433#0 1416509433#1 1416509433#2 806173063#0 806173063#1 806173063#2 806173063#3 806173063#4 806173063#5 806173063#6 762717865#0 762717865#1 762717865#2 762717865#3 762717865#4 -411692791#2 -411692791#1 -411692791#0 -411310824#7 -411310824#6 -412382234"/>
    </vehicle>
    <vehicle id="26" depart="26.00">
        <route edges="-412942351#8 412942351#8 412942351#9 412942351#10 -412942381#3 -412942381#2 -412942381#1 -412942381#0 -678499602#0 -1370429179 -1226632554#8 -1226632554#7 -1226632554#6 -1226632554#5 -1226632554#4 -1226632554#3 411627128 763272120 763272121 763272122 763272123#0 763272123#1 763272124 763272125 412758096#1 678516377 682125738#0"/>
    </vehicle>
    <vehicle id="27" depart="27.00">
        <route edges="411713010#2 411713012#1 411713029#4 411713029#5 411713029#6 -1068289385#0 412947985 240880538#0 240880538#1 240880538#2 240880538#3 240880538#4 240880538#5 240880538#6 240880538#7 240880538#8 240880538#9 240880538#10 240880538#11 240880538#12 240880538#13 240880538#14 240880538#15 240880538#16 240880538#17 240880538#18 240880538#19 1120991057#0 1120991057#1 1120991057#2 1120991057#3 1120991057#4 678499565 643238415#0 643238415#1 643238415#2 643238415#3 643238415#4 643238415#5 643238415#6 643238415#7 772820316 1486993476 1486993475 772820315#0 643238433 643238411 1486993469-AddedOnRampEdge 1486993469 -1332084889#5 -1332084889#4 -1332084889#3 -1332084889#2 -1332084889#1 -1332084889#0 -1486993467 -243461250 643433200 243460866#0 243460866#0-AddedOffRampEdge 243460866#1 243460866#2 243460866#3 243460866#3-AddedOffRampEdge 643433205 292875373#0 292875373#1 643064999 1486993487 643065000#1 643064995 292875371#0 292875371#1 682462414#0 682462414#1 682462414#2 682462414#3 682462414#4 682462414#5 682462414#6 -762720321#1 -762720321#0 -411692678#3 -411692678#2 -411692678#1 -411692678#0 -411660390#8 -411660390#7 -411660390#6 -411660390#5 -411660390#4 -411660390#3 -411660390#2 -411660390#1 -411660390#0 -762727022#2 -762727022#1 -762727022#0 -1521905285 -412755617#8 -412755617#7 -412755617#6 -412755617#5 -412755617#4 -412755617#3 -412755617#2 411627178#1 411627178#2"/>
    </vehicle>
    <vehicle id="28" depart="28.00">
        <route edges="-411713039#2 -411713039#1 -411713039#0 -411692660#1 -411692660#0 -411627264#2 -411627264#1 -411627264#0 -412942320#0 -411310834 -762717865#9 -762717865#8 -762717865#7 -762717865#6 -762717865#5 -762717865#4 -762717865#3 -762717865#2 -762717865#1 -762717865#0 -806173063#6 -806173063#5 -806173063#4 -806173063#3 -806173063#2 -806173063#1 -806173063#0 -1416509433#2 -1416509433#1 -1416509433#0 1416509434#0 1416509434#1 1416509434#2 -411660390#5 -411660390#4 -411660390#3 -411660390#2 776135725 776135724#0 776135724#1 -412755593#9 776135720#0 776135720#1 -1370429192 -412703995#2 -412703995#1 -412703995#0 -411719228#7 -411719228#6 -411719228#5 -411719228#4 -411719228#3 -411719228#2 -411719228#1 -411719228#0 412755585#2 412755585#3 412755585#4 412755585#5"/>
    </vehicle>
    <vehicle id="29" depart="29.00">
        <route edges="-411713010#3 411713012#1 411713029#4 411713029#5 411713029#6 -1068289385#0 412947985 240880538#0 240880538#1 240880538#2 240880538#3 240880538#4 240880538#5 240880538#6 240880538#7 240880538#8 240880538#9 240880538#10 240880538#11 240880538#12 240880538#13 240880538#14 240880538#15 240880538#16 240880538#17 240880538#18 240880538#19 1120991057#0 1120991057#1 1120991057#2 1120991057#3 1120991057#4 678499565 643238415#0 643238415#1 643238415#2 643238415#3 643238415#4 643238415#5 643238415#6 643238415#7 772820316 1486993476 240885882#0 240885882#1 240885882#2 240885882#3 240885882#4 240885882#5 240885882#6 240885882#7 240885882#8-AddedOnRampEdge 240885882#8 643238439 411713009#1 411713009#2 411713009#3 411713009#4 411713009#5 411713009#6 411713009#7 411713009#8 411713009#9 411713009#10 411713009#11 1486993480 1290129815 643238463 643238464 643065014 240886172#0 240886172#1 66539522#0 66539522#1 643065017 643065028#0 643065028#1 119858358 240886534#0 240886534#1 240886534#2 240886534#3 240886534#4 643065067#0 643065067#1 1332087805#6 643065065 240887624#0 240887624#1 240887624#2 240887624#3 240887624#4 643065059#1 240887706#0 240887706#1 240887706#2 240887706#3 240887706#4 240887706#5 411310013#4 -411310008#2 -411310008#1 -411310008#0 763270280#0 763270280#1 1332082364#1 677194507#0 701651761 -677194507#2"/>
    </vehicle>
    <vehicle id="30" depart="30.00">
        <route edges="776144162#0 776144162#1 776144161#3 776144163#0 411719198#2 411310035#0 411310035#1 411310035#2 411310035#3 411310035#4 411310035#5 411310035#6 411310035#7 643065049 412755585#1 411719228#0 411719228#1 411719228#2 411719228#3 411719228#4 411719228#5 411719228#6 411719228#7 1335037187 1073067589#0 411692639#0 411692639#1"/>
    </vehicle>
    <vehicle id="31" depart="31.00">
        <route edges="411310830#2 -631286498#7 -631286498#6 -631286498#5 -631286498#4 -631286498#3 -631286498#2 -631286498#1 -631286498#0 -1486993479#1 -1486993479#0 -643238459 1290129815 643238463 643238464 643065014 240886172#0 240886172#1 66539522#0 66539522#1 643065017 643065028#0 643065028#1 119858358 1332084890 1332084891#0 1332084891#1 643065029 643065030#0 643065030#2 643065030#3 -1120970958#1 -1120970958#0 966858344 682462413 966858343 966858345#2-AddedOnRampEdge 966858345#2 966858345#3 966858345#4 966858345#5 966858345#6 292875371#4 412782965#0 412782965#1 412782965#2 412782965#3 412782965#4 412782965#5 412782965#6 412782965#7 1332087793#0 1332087793#1 1332087793#2 1332087793#3 -701657228 -412126641#1 412126641#1"/>
    </vehicle>
    <vehicle id="32" depart="32.00">
        <route edges="631286497#1 764173147#1 764173147#2 412782965#7 1332087793#0 1332087793#1 1332087793#2 1332087793#3 1332087793#4 1332087793#5 1332087802#0 643064978#0 643064978#1 643064977#0 643064977#1 643065091 1332087797#0 1332087797#1 1332087797#2 1332087797#3 293569892#0 293569892#1 1486993465 1486993464 1486993462 772820318#0 772820318#1 772820318#2 293569895#0 293569895#1 643238407 243461251 544391478#0 544391478#1 544391478#2 643238422#0 643238422#1 643238422#2 1120991058#0 1120991058#1 1120991058#2 1120991058#3 412947977#0 412947977#1 412947977#2 412947977#3 412947977#4 412947977#5 412947977#6 412947977#7 678499609 1144575836 -412943627#14 -412943627#13 -412943627#12 -685428255 -678499604#3 412942336 412942385#0 412942385#1"/>
    </vehicle>
    <vehicle id="33" depart="33.00">
        <route edges="-412755585#0 -643065055#4 -643065055#3 -643065055#2 -643065055#1 -643065055#0 -377950330#1 -643065061#1 -643065061#0 -776135727#8 -776135727#7 -776135727#6 -776135727#5 -776135727#4 -776135727#3 -776135727#2 -776135727#1 -776135727#0 411660390#6 411660390#7 411660390#8 411692678#0 411692678#1 411692678#2 411692678#3 762720321#0 776398605 966858343 966858345#2-AddedOnRampEdge 966858345#2 966858345#3 966858345#4 966858345#5 966858345#6 292875371#4 412782965#0 412782965#1 412782965#2 412782965#3 412782965#4 412782965#5 412782965#6 412782965#7 1332087793#0 1332087793#1 1332087793#2 1332087793#3 1332087793#4 1332087793#5 1332087802#0 1332087802#2 1332087802#3 1332087802#4 643064973 643064975 293569900#0 -293569900#0"/>
    </vehicle>
    <vehicle id="34" depart="34.00">
        <route edges="-412973134#4 -412973134#3 -412973134#2 -412382147#11 -412382147#10 -412382147#9 -412382147#8 -412382147#7 -412382147#6 -765287243#3 -765287243#2 -765287243#1 -765287243#0 -765287242 -377950341#5 -377950341#4 -412942311#0"/>
    </vehicle>
    <vehicle id="35" depart="35.00">
        <route edges="-412382245#2 412382245#2 412382245#3 377950336#2 377950336#3 377950337#0 377950337#1 377950337#2 -412382198#0 1068289388#4 29206069#1 29206069#2 29206069#3 29206069#4 29206069#5 29206069#6 29206069#7 29206069#8 29206069#9 29206069#10 827120667 643077739 643077744 643077743 643077742 132985760 643077741 1068289386 827120438#1 827120438#2 827120437 678499575 240880538#0 240880538#1 240880538#2 240880538#3 240880538#4 240880538#5 240880538#6 240880538#7 240880538#8 240880538#9 1144575836 -412943627#14 -412943627#13 -412943627#12 -412943627#11 -412943627#10 -412943627#9 -412943627#8 -412943627#7 -412943627#6 -412943627#5 -412943627#4 -412943627#3 -412943627#2 -412943627#1 -412943627#0 -1370429180#5 -1370429180#4 -1370429180#3 -1370429180#2 -1370429180#1 -1370429180#0 412947948#0 412947948#1 412947948#2 412947948#3 412947948#4 -411360305#1 -411360305#0 631286516#0 631286516#1 -701656996#1 701656995"/>
    </vehicle>
    <vehicle id="36" depart="36.00">
        <route edges="643107194#0 643107194#1 643107194#2 643107194#3 643107194#4 643107194#5 643107194#6 643107194#7 1332082359#0 1332082359#1 1332082359#2 1332082358 643107193#0 643107193#1 643107182 772820319-AddedOnRampEdge 772820319 643107180#0 643107180#1 412942378#0-AddedOnRampEdge 412942378#0 412942378#1 412942378#2 412942378#3 412942378#4 412942378#5 412942378#6 412942378#7 412942378#8 412942378#9 867146907 643107208#0 643107208#1 643107234#0 643107210 66539518#24 66539518#25 643107218#0 643107218#1 -1486993457 -1486993458 -1486993454 -293569899#1 -293569899#0 293569892#0 293569892#1 1486993465 1486993464 1486993462 772820318#0 772820318#1 772820318#2 293569895#0 293569895#1 643238407 243461251 544391478#0 544391478#1 544391478#2 643238422#0 643238422#1 643238422#2 643238422#3 240883043#0 240883043#1 240883043#2 240883043#3 240883043#4 678516371 678516370#0 678516370#1 643238419#0 643238419#1 643238419#2 -411692737#3 412973144#0 412973144#1 412973144#2 762735580#0 762735580#1 -412943626#1 -412973067#1"/>
    </vehicle>
    <vehicle id="37" depart="37.00">