<?xml version="1.0" encoding="UTF-8"?>

<!-- generated on 2026-06-02 17:32:41.240329 by Eclipse SUMO randomTrips.py v1.26.0
<configuration>
    <net-file value="osm.net.xml.gz"/>
    <route-file value="precalculated_routes.rou.xml"/>
    <fringe-factor value="5"/>
    <end value="1800.0"/>
</configuration>
-->

<routes xmlns:xsi="http://www.w3.org/2001/XMLSchema-instance" xsi:noNamespaceSchemaLocation="http://sumo.dlr.de/xsd/routes_file.xsd">
    <trip id="0" depart="0.00" from="411692793#1" to="-1486993473#0"/>
    <trip id="1" depart="1.00" from="-412942401#1" to="-412703929"/>
    <trip id="2" depart="2.00" from="412758097#0" to="411719214#17"/>
    <trip id="3" depart="3.00" from="643433180" to="-411360337#0"/>
    <trip id="4" depart="4.00" from="-762991215#1" to="-29206069#0"/>
    <trip id="5" depart="5.00" from="-412703908#5" to="1416510006#0"/>
    <trip id="6" depart="6.00" from="-1416509433#2" to="-412382192#2"/>
    <trip id="7" depart="7.00" from="411713021" to="293569941#2"/>
    <trip id="8" depart="8.00" from="-412703933#1" to="411360353#2"/>
    <trip id="9" depart="9.00" from="412973069#1" to="-1183581703#0"/>
    <trip id="10" depart="10.00" from="412973053" to="412382194#0"/>
    <trip id="11" depart="11.00" from="-643065034#0" to="-411692796#2"/>
    <trip id="12" depart="12.00" from="762717865#4" to="-413073706#2"/>
    <trip id="13" depart="13.00" from="-411360347" to="-411627061#5"/>
    <trip id="14" depart="14.00" from="631286520#0" to="411627136#4"/>
    <trip id="15" depart="15.00" from="412973058#2" to="412755588#0"/>
    <trip id="16" depart="16.00" from="293569981#5" to="763264919#1"/>
    <trip id="17" depart="17.00" from="-678499542" to="293569977#1"/>
    <trip id="18" depart="18.00" from="413073669#4" to="411627262#1"/>
    <trip id="19" depart="19.00" from="643065055#2" to="411360305#1"/>
    <trip id="20" depart="20.00" from="412697664#0" to="-293569946#0"/>
    <trip id="21" depart="21.00" from="-412755572" to="-412943622#5"/>
    <trip id="22" depart="22.00" from="-411360298#2" to="-412755580#0"/>
    <trip id="23" depart="23.00" from="-411627090#6" to="-412942359#0"/>
    <trip id="24" depart="24.00" from="411692737#3" to="-643107176#0"/>
    <trip id="25" depart="25.00" from="-677194542#1" to="-412382234"/>
    <trip id="26" depart="26.00" from="-412942351#8" to="682125738#0"/>
    <trip id="27" depart="27.00" from="411713010#2" to="411627178#2"/>
    <trip id="28" depart="28.00" from="-411713039#2" to="412755585#5"/>
    <trip id="29" depart="29.00" from="-411713010#3" to="-677194507#2"/>
    <trip id="30" depart="30.00" from="776144162#0" to="411692639#1"/>
    <trip id="31" depart="31.00" from="411310830#2" to="412126641#1"/>
    <trip id="32" depart="32.00" from="631286497#1" to="412942385#1"/>
    <trip id="33" depart="33.00" from="-412755585#0" to="-293569900#0"/>
    <trip id="34" depart="34.00" from="-412973134#4" to="-412942311#0"/>
    <trip id="35" depart="35.00" from="-412382245#2" to="701656995"/>
    <trip id="36" depart="36.00" from="643107194#0" to="-412973067#1"/>
    <trip id="37" depart="37.00" from="411713043#1" to="-678499604#1"/>
    <trip id="38" depart="38.00" from="678499494#0" to="-776144163#0"/>
    <trip id="39" depart="39.00" from="-412942337" to="-412755633"/>
    <trip id="40" depart="40.00" from="411360302#7" to="-412782974#2"/>
    <trip id="41" depart="41.00" from="411627097#0" to="644387658"/>
    <trip id="42" depart="42.00" from="-701647451#0" to="-412697675#2"/>
    <trip id="43" depart="43.00" from="827120438#2" to="1486993474#2"/>
    <trip id="44" depart="44.00" from="-411360340#7" to="-293569949#6"/>
    <trip id="45" depart="45.00" from="-411627142#2" to="411660390#1"/>
    <trip id="46" depart="46.00" from="412947963#4" to="-701657013"/>
    <trip id="47" depart="47.00" from="-377950337#1" to="-677194536#1"/>
    <trip id="48" depart="48.00" from="790225654#0" to="293569892#1"/>
    <trip id="49" depart="49.00" from="763263428#0" to="643065075#0"/>
    <trip id="50" depart="50.00" from="-1226634042#1" to="412703945#3"/>
    <trip id="51" depart="51.00" from="412382158#1" to="293569922#0"/>
    <trip id="52" depart="52.00" from="-412942351#6" to="411692650#1"/>
    <trip id="53" depart="53.00" from="-411627152#2" to="-762997842"/>
    <trip id="54" depart="54.00" from="1068289385#1" to="718060821"/>
    <trip id="55" depart="55.00" from="643107192#2" to="-412782975#2"/>
    <trip id="56" depart="56.00" from="240885882#15" to="-411719216#2"/>
    <trip id="57" depart="57.00" from="677194553#0" to="643107187"/>
    <trip id="58" depart="58.00" from="-412973041#2" to="411692633"/>
    <trip id="59" depart="59.00" from="411627273#2" to="-411692753#2"/>
    <trip id="60" depart="60.00" from="412942335" to="293569927#2"/>
    <trip id="61" depart="61.00" from="412942407#2" to="293569899#1"/>
    <trip id="62" depart="62.00" from="-1068289388#1" to="-412973106#0"/>
    <trip id="63" depart="63.00" from="-1335037187" to="678516403#5"/>
    <trip id="64" depart="64.00" from="643107204" to="413073862#1"/>
    <trip id="65" depart="65.00" from="-412973089#0" to="-377950330#0"/>
    <trip id="66" depart="66.00" from="643107202#1" to="701657018"/>
    <trip id="67" depart="67.00" from="-411360317#1" to="1332078810"/>
    <trip id="68" depart="68.00" from="-411309992#2" to="412782991#2"/>
    <trip id="69" depart="69.00" from="412942351#0" to="-411658433#2"/>
    <trip id="70" depart="70.00" from="1332087797#3" to="293569968#4"/>
    <trip id="71" depart="71.00" from="-412942344" to="643107191"/>
    <trip id="72" depart="72.00" from="-763002101" to="-412382243#0"/>
    <trip id="73" depart="73.00" from="293570005#1" to="412755588#3"/>
    <trip id="74" depart="74.00" from="-412382196" to="-412973054#1"/>
    <trip id="75" depart="75.00" from="777900976#1" to="411692753#3"/>
    <trip id="76" depart="76.00" from="-763272125" to="240885951#0"/>
    <trip id="77" depart="77.00" from="-411627245#4" to="-412703942"/>
    <trip id="78" depart="78.00" from="-643064994#0" to="411360352#1"/>
    <trip id="79" depart="79.00" from="-412755588#1" to="-412703894#0"/>
    <trip id="80" depart="80.00" from="-411310008#6" to="411660407#1"/>
    <trip id="81" depart="81.00" from="-412755583#0" to="677194534#1"/>
    <trip id="82" depart="82.00" from="643065041#1" to="-411310035#6"/>
    <trip id="83" depart="83.00" from="-412755622#6" to="411713040"/>
    <trip id="84" depart="84.00" from="-412697665#1" to="-411660386#1"/>
    <trip id="85" depart="85.00" from="678516439#1" to="411310829#2"/>
    <trip id="86" depart="86.00" from="1332084889#3" to="412943628#0"/>
    <trip id="87" depart="87.00" from="412973058#6" to="-412382122#0"/>
    <trip id="88" depart="88.00" from="-411627055#1" to="-762729391"/>
    <trip id="89" depart="89.00" from="-763002108#0" to="1069223777#5"/>
    <trip id="90" depart="90.00" from="412755611#3" to="411719205#4"/>
    <trip id="91" depart="91.00" from="772820321#3" to="-411627072#5"/>
    <trip id="92" depart="92.00" from="-701656994" to="-413073774#0"/>
    <trip id="93" depart="93.00" from="643065055#1" to="-412758101#0"/>
    <trip id="94" depart="94.00" from="-412382105#1" to="-763271017#1"/>
    <trip id="95" depart="95.00" from="-762991215#1" to="-412942361#0"/>
    <trip id="96" depart="96.00" from="-412782936" to="678499629"/>
    <trip id="97" depart="97.00" from="-775841241" to="643065086"/>
    <trip id="98" depart="98.00" from="411310008#5" to="-293569968#8"/>
    <trip id="99" depart="99.00" from="966858344" to="631286496#0"/>
    <trip id="100" depart="100.00" from="763263283#0" to="678516389"/>
    <trip id="101" depart="101.00" from="631286539#5" to="-411713028#5"/>
    <trip id="102" depart="102.00" from="1370429186#0" to="-412697652#0"/>
    <trip id="103" depart="103.00" from="-701651773" to="-377950332#1"/>
    <trip id="104" depart="104.00" from="-678499544" to="775175606"/>
    <trip id="105" depart="105.00" from="-412942345#2" to="412943627#3"/>
    <trip id="106" depart="106.00" from="1069223779#0" to="-701657019"/>
    <trip id="107" depart="107.00" from="762717865#5" to="777904287"/>
    <trip id="108" depart="108.00" from="411310827#2" to="412703908#9"/>
    <trip id="109" depart="109.00" from="-411692756#3" to="-412947950#1"/>
    <trip id="110" depart="110.00" from="763263280#0" to="411360315#4"/>
    <trip id="111" depart="111.00" from="377950334#0" to="412782929#3"/>
    <trip id="112" depart="112.00" from="-293569975#1" to="411360336#1"/>
    <trip id="113" depart="113.00" from="240886534#3" to="643065034#1"/>
    <trip id="114" depart="114.00" from="-411692791#1" to="762735580#0"/>
    <trip id="115" depart="115.00" from="-411360299#1" to="-412126666#2"/>
    <trip id="116" depart="116.00" from="411627150#0" to="411719212#2"/>
    <trip id="117" depart="117.00" from="-412755615#0" to="-411627224#0"/>
    <trip id="118" depart="118.00" from="643433165" to="-412755630#3"/>
    <trip id="119" depart="119.00" from="411627148#3" to="411627264#3"/>
    <trip id="120" depart="120.00" from="-762729394" to="411360335#0"/>
    <trip id="121" depart="121.00" from="293569926#5" to="678516441"/>
    <trip id="122" depart="122.00" from="-412382207#1" to="412697675#7"/>
    <trip id="123" depart="123.00" from="-412755627#1" to="-678499604#3"/>
    <trip id="124" depart="124.00" from="412126645" to="-412947964#0"/>
    <trip id="125" depart="125.00" from="-412973140#1" to="412782953#1"/>
    <trip id="126" depart="126.00" from="-411310016#2" to="-776135727#8"/>
    <trip id="127" depart="127.00" from="867146907" to="790225654#0"/>
    <trip id="128" depart="128.00" from="-411310030#1" to="-412382246"/>
    <trip id="129" depart="129.00" from="-412942345#2" to="678516432#1"/>
    <trip id="130" depart="130.00" from="643107224" to="643107234#12"/>
    <trip id="131" depart="131.00" from="-677194536#2" to="-411712992#2"/>
    <trip id="132" depart="132.00" from="413073767#5" to="412382215#1"/>
    <trip id="133" depart="133.00" from="411658433#0" to="776107658"/>
    <trip id="134" depart="134.00" from="411713037#1" to="-1226634042#0"/>
    <trip id="135" depart="135.00" from="412973098#2" to="-412947961#2"/>
    <trip id="136" depart="136.00" from="411719214#15" to="701647369"/>
    <trip id="137" depart="137.00" from="-411660397#2" to="-411627181#5"/>
    <trip id="138" depart="138.00" from="-411627120#5" to="293569986"/>
    <trip id="139" depart="139.00" from="-412942381#3" to="411627144#2"/>
    <trip id="140" depart="140.00" from="412703989#1" to="-412382210"/>
    <trip id="141" depart="141.00" from="411692713#5" to="-412782980#1"/>
    <trip id="142" depart="142.00" from="1416509432" to="677194534#0"/>
    <trip id="143" depart="143.00" from="631286512#4" to="-411360352#7"/>
    <trip id="144" depart="144.00" from="-763002108#0" to="-412942353#2"/>
    <trip id="145" depart="145.00" from="-1073067590" to="412942360#1"/>
    <trip id="146" depart="146.00" from="411692756#1" to="-412782973#3"/>
    <trip id="147" depart="147.00" from="412782926#4" to="293569976#1"/>
    <trip id="148" depart="148.00" from="-763263280#1" to="-1271814149#1"/>
    <trip id="149" depart="149.00" from="-411310824#2" to="643238422#0"/>
    <trip id="150" depart="150.00" from="677194506#0" to="293569946#3"/>
    <trip id="151" depart="151.00" from="413073780#0" to="411360327#2"/>
    <trip id="152" depart="152.00" from="-411692676#1" to="-411658429#4"/>
    <trip id="153" depart="153.00" from="-412973091#2" to="66539518#13"/>
    <trip id="154" depart="154.00" from="412947976#10" to="643065075#0"/>
    <trip id="155" depart="155.00" from="66539518#0" to="-412382235#3"/>
    <trip id="156" depart="156.00" from="-412782935#2" to="-411627099#0"/>
    <trip id="157" depart="157.00" from="412943619#1" to="643238448#3"/>
    <trip id="158" depart="158.00" from="-701657011#8" to="411627275#0"/>
    <trip id="159" depart="159.00" from="-411692756#0" to="678516406#2"/>
    <trip id="160" depart="160.00" from="643065073#10" to="763269098#3"/>
    <trip id="161" depart="161.00" from="412973078#0" to="643112035#0"/>
    <trip id="162" depart="162.00" from="-1370429192" to="412755617#3"/>
    <trip id="163" depart="163.00" from="-631286509#1" to="678516412#1"/>
    <trip id="164" depart="164.00" from="412973037#9" to="643065108"/>
    <trip id="165" depart="165.00" from="412973078#0" to="-412782992#3"/>
    <trip id="166" depart="166.00" from="412947946" to="-411627136#0"/>
    <trip id="167" depart="167.00" from="643107166#3" to="643065065"/>
    <trip id="168" depart="168.00" from="-412703959" to="412973105"/>
    <trip id="169" depart="169.00" from="1120991057#4" to="-412947980#1"/>
    <trip id="170" depart="170.00" from="412947974#1" to="-412703968#3"/>
    <trip id="171" depart="171.00" from="-1370429182#1" to="-412382147#1"/>
    <trip id="172" depart="172.00" from="-630221190" to="643065109"/>
    <trip id="173" depart="173.00" from="763003231" to="-412942362#1"/>
    <trip id="174" depart="174.00" from="411712989#2" to="-678516381"/>
    <trip id="175" depart="175.00" from="765287896#0" to="293569920#2"/>
    <trip id="176" depart="176.00" from="685428255" to="-411627181#4"/>
    <trip id="177" depart="177.00" from="763263289#1" to="-411719216#1"/>
    <trip id="178" depart="178.00" from="762991013" to="-412782988#5"/>
    <trip id="179" depart="179.00" from="-411627134#1" to="-762997842"/>
    <trip id="180" depart="180.00" from="412755611#0" to="-412973062"/>
    <trip id="181" depart="181.00" from="411627249#1" to="1486993489#2"/>
    <trip id="182" depart="182.00" from="-678499625#1" to="411360303#1"/>
    <trip id="183" depart="183.00" from="-412782970#2" to="412382238#3"/>
    <trip id="184" depart="184.00" from="-1069223777#4" to="678516382#2"/>
    <trip id="185" depart="185.00" from="293569999#1" to="412703931#2"/>
    <trip id="186" depart="186.00" from="412782928#0" to="411713049#0"/>
    <trip id="187" depart="187.00" from="-644387659#0" to="-411310030#2"/>
    <trip id="188" depart="188.00" from="411719214#3" to="-412973147#0"/>
    <trip id="189" depart="189.00" from="-412973119#0" to="643064993#0"/>
    <trip id="190" depart="190.00" from="412755569#0" to="-412947964#0"/>
    <trip id="191" depart="191.00" from="-412973094#6" to="-678516449#2"/>
    <trip id="192" depart="192.00" from="-701656993" to="-412947948#1"/>
    <trip id="193" depart="193.00" from="-411658429#3" to="-701657009#1"/>
    <trip id="194" depart="194.00" from="701647364" to="411719214#23"/>
    <trip id="195" depart="195.00" from="672015099#1" to="411627236#4"/>
    <trip id="196" depart="196.00" from="-412973058#0" to="293569958#1"/>
    <trip id="197" depart="197.00" from="-1068289387" to="-412943613"/>
    <trip id="198" depart="198.00" from="-763263293#1" to="411360319#0"/>
    <trip id="199" depart="199.00" from="411713039#0" to="-927738302#0"/>
    <trip id="200" depart="200.00" from="-772820314#1" to="-412697652#0"/>
    <trip id="201" depart="201.00" from="1332084892" to="672015097#0"/>
    <trip id="202" depart="202.00" from="412947976#0" to="-411713044#4"/>
    <trip id="203" depart="203.00" from="-411360315#2" to="240884277#0"/>
    <trip id="204" depart="204.00" from="411692694#3" to="-413073672"/>
    <trip id="205" depart="205.00" from="412973105" to="412782945#1"/>
    <trip id="206" depart="206.00" from="412126667" to="-412703942"/>
    <trip id="207" depart="207.00" from="-412382187#1" to="-1486993462"/>
    <trip id="208" depart="208.00" from="-412782921#5" to="1121210140"/>
    <trip id="209" depart="209.00" from="632644898" to="-411310827#4"/>
    <trip id="210" depart="210.00" from="-718060824" to="411660397#2"/>
    <trip id="211" depart="211.00" from="-412382142#9" to="412382174"/>
    <trip id="212" depart="212.00" from="1486993483" to="-412755624"/>
    <trip id="213" depart="213.00" from="411713045#1" to="-1120970968#1"/>
    <trip id="214" depart="214.00" from="412782969#1" to="412942356#3"/>
    <trip id="215" depart="215.00" from="-411627120#2" to="-701657040#0"/>
    <trip id="216" depart="216.00" from="-411719206#3" to="762720321#0"/>
    <trip id="217" depart="217.00" from="293569912#14" to="-293569968#3"/>
    <trip id="218" depart="218.00" from="-412782934#0" to="643064995"/>
    <trip id="219" depart="219.00" from="1073067589#6" to="412947991#2"/>
    <trip id="220" depart="220.00" from="411719225#2" to="776135718#2"/>
    <trip id="221" depart="221.00" from="411627150#3" to="701657030"/>
    <trip id="222" depart="222.00" from="643433175#4" to="411627204"/>
    <trip id="223" depart="223.00" from="412704009#0" to="1416510002#0"/>
    <trip id="224" depart="224.00" from="413073696" to="293569958#0"/>
    <trip id="225" depart="225.00" from="643492994#1" to="412782919#4"/>
    <trip id="226" depart="226.00" from="1332087794#5" to="-412782959#1"/>
    <trip id="227" depart="227.00" from="-412782927#3" to="411692631#0"/>
    <trip id="228" depart="228.00" from="412942349#2" to="29206069#2"/>
    <trip id="229" depart="229.00" from="411692632#2" to="-412942345#0"/>
    <trip id="230" depart="230.00" from="-411310832#1" to="-412942403"/>
    <trip id="231" depart="231.00" from="-412942380#1" to="-412973090#2"/>
    <trip id="232" depart="232.00" from="293570010#0" to="-411679560#0"/>
    <trip id="233" depart="233.00" from="-412755591#3" to="412382156#3"/>
    <trip id="234" depart="234.00" from="412697672#0" to="-411309989#15"/>
    <trip id="235" depart="235.00" from="-701657022#1" to="293569933#3"/>
    <trip id="236" depart="236.00" from="-762717862#1" to="-412382218#2"/>
    <trip id="237" depart="237.00" from="-762735581" to="677194530#1"/>
    <trip id="238" depart="238.00" from="411627090#7" to="412382166#2"/>
    <trip id="239" depart="239.00" from="643065027#2" to="412942331#2"/>
    <trip id="240" depart="240.00" from="-678499555" to="-1121189503"/>
    <trip id="241" depart="241.00" from="-643107191" to="412782962#0"/>
    <trip id="242" depart="242.00" from="643064994#0" to="718060819"/>
    <trip id="243" depart="243.00" from="-762729393#1" to="412782928#2"/>
    <trip id="244" depart="244.00" from="411309985#2" to="411627134#1"/>
    <trip id="245" depart="245.00" from="-412703933#3" to="-412697675#3"/>
    <trip id="246" depart="246.00" from="-763269101#1" to="-240887706#2"/>
    <trip id="247" depart="247.00" from="-631286533#1" to="411719219#0"/>
    <trip id="248" depart="248.00" from="-701657000#1" to="-411713026#3"/>
    <trip id="249" depart="249.00" from="1271814152#0" to="-411658430#2"/>
    <trip id="250" depart="250.00" from="411679551" to="-1521905283"/>
    <trip id="251" depart="251.00" from="-678516430" to="411310008#1"/>
    <trip id="252" depart="252.00" from="-1416510003" to="411692666#1"/>
    <trip id="253" depart="253.00" from="-411660407#1" to="-777629478"/>
    <trip id="254" depart="254.00" from="-293569934#9" to="-677194506#0"/>
    <trip id="255" depart="255.00" from="-412697651#0" to="-412973122"/>
    <trip id="256" depart="256.00" from="412942325" to="-677194506#0"/>
    <trip id="257" depart="257.00" from="412782973#5" to="413073862#4"/>
    <trip id="258" depart="258.00" from="-412782954#1" to="-411360317#2"/>
    <trip id="259" depart="259.00" from="-1335037186#1" to="293569927#2"/>
    <trip id="260" depart="260.00" from="966858345#5" to="-631286511#4"/>
    <trip id="261" depart="261.00" from="411713022#2" to="412943622#6"/>
    <trip id="262" depart="262.00" from="411713027#1" to="412782965#0"/>
    <trip id="263" depart="263.00" from="701657011#2" to="-412382194#2"/>
    <trip id="264" depart="264.00" from="-1370429164" to="-411692750#0"/>
    <trip id="265" depart="265.00" from="-411658425#0" to="411713043#1"/>
    <trip id="266" depart="266.00" from="411360312" to="-412697672#0"/>
    <trip id="267" depart="267.00" from="412382241#0" to="412942348#1"/>
    <trip id="268" depart="268.00" from="-411713027#3" to="411627166#1"/>
    <trip id="269" depart="269.00" from="412782958" to="-411627178#0"/>
    <trip id="270" depart="270.00" from="412973110" to="763002108#3"/>
    <trip id="271" depart="271.00" from="-411627134#1" to="-1486993485"/>
    <trip id="272" depart="272.00" from="-412973108#2" to="411719214#3"/>
    <trip id="273" depart="273.00" from="762717867" to="-678499621"/>
    <trip id="274" depart="274.00" from="412703961" to="-411360296#1"/>
    <trip id="275" depart="275.00" from="412382210" to="411660386#3"/>
    <trip id="276" depart="276.00" from="-411627097#12" to="412942366#1"/>
    <trip id="277" depart="277.00" from="643064974" to="411627114#6"/>
    <trip id="278" depart="278.00" from="-411627245#4" to="772820319-AddedOnRampEdge"/>
    <trip id="279" depart="279.00" from="412943626#1" to="-631286496#1"/>
    <trip id="280" depart="280.00" from="-763263285" to="-643238448#3"/>
    <trip id="281" depart="281.00" from="29206069#5" to="-413073810#2"/>
    <trip id="282" depart="282.00" from="632644009#0" to="412973147#0"/>
    <trip id="283" depart="283.00" from="-411627114#6" to="762735580#0"/>
    <trip id="284" depart="284.00" from="411692737#1" to="413073755#0"/>
    <trip id="285" depart="285.00" from="412697673#5" to="-763002098#0"/>
    <trip id="286" depart="286.00" from="412755625" to="763003232"/>
    <trip id="287" depart="287.00" from="-412942361#3" to="412973064"/>
    <trip id="288" depart="288.00" from="293569998" to="1271814152#0"/>
    <trip id="289" depart="289.00" from="-763269099#0" to="412755593#0"/>
    <trip id="290" depart="290.00" from="-412942355#1" to="643065030#2"/>
    <trip id="291" depart="291.00" from="413073696" to="-411360336#0"/>
    <trip id="292" depart="292.00" from="643107228" to="-412755624"/>
    <trip id="293" depart="293.00" from="1226634045#4" to="411627183#0"/>
    <trip id="294" depart="294.00" from="-678499544" to="-240887706#1"/>
    <trip id="295" depart="295.00" from="643064978#1" to="-411719228#4"/>
    <trip id="296" depart="296.00" from="-412697652#2" to="412947977#2"/>
    <trip id="297" depart="297.00" from="-643065034#1" to="643107234#23"/>
    <trip id="298" depart="298.00" from="412382245#5" to="-412942351#9"/>
    <trip id="299" depart="299.00" from="-1216967023" to="701657025#1"/>
    <trip id="300" depart="300.00" from="-411360317#1" to="412703933#3"/>
    <trip id="301" depart="301.00" from="1416509433#0" to="412782980#3"/>
    <trip id="302" depart="302.00" from="412382210" to="411692700#0"/>
    <trip id="303" depart="303.00" from="1486993456#1" to="412947966#1"/>
    <trip id="304" depart="304.00" from="-411360348" to="-412703908#12"/>
    <trip id="305" depart="305.00" from="412382214#2" to="-412947990"/>
    <trip id="306" depart="306.00" from="411627072#4" to="1120991054"/>
    <trip id="307" depart="307.00" from="293569955#2" to="-701657228"/>
    <trip id="308" depart="308.00" from="412782945#4" to="-413000653"/>
    <trip id="309" depart="309.00" from="412697659#1" to="-412942324#0"/>
    <trip id="310" depart="310.00" from="-412782945#4" to="-411627239#2"/>
    <trip id="311" depart="311.00" from="-412382134" to="-411627212#3"/>
    <trip id="312" depart="312.00" from="293569981#1" to="412942313"/>
    <trip id="313" depart="313.00" from="-412126612#0" to="-412697665#0"/>
    <trip id="314" depart="314.00" from="1370429178#2" to="412703987"/>
    <trip id="315" depart="315.00" from="763269718" to="292875362#0"/>
    <trip id="316" depart="316.00" from="-412943631#1" to="-411627090#5"/>
    <trip id="317" depart="317.00" from="-412382142#6" to="-412703968#1"/>
    <trip id="318" depart="318.00" from="-411719214#4" to="-1332084890"/>
    <trip id="319" depart="319.00" from="293569973#3" to="-412942345#0"/>
    <trip id="320" depart="320.00" from="763268156#1" to="293569990"/>
    <trip id="321" depart="321.00" from="412382232#1" to="-411658425#0"/>
    <trip id="322" depart="322.00" from="643065105#2" to="1332087794#6"/>
    <trip id="323" depart="323.00" from="643107168" to="411360298#4"/>
    <trip id="324" depart="324.00" from="1332080047" to="-763263288#0"/>
    <trip id="325" depart="325.00" from="-411719229#1" to="-293569974#1"/>
    <trip id="326" depart="326.00" from="701647365" to="1207642411"/>
    <trip id="327" depart="327.00" from="412973129" to="-678516388"/>
    <trip id="328" depart="328.00" from="-411310035#3" to="411660395"/>
    <trip id="329" depart="329.00" from="-293569955#3" to="-411692704#0"/>
    <trip id="330" depart="330.00" from="411360308#2" to="-412947976#11"/>
    <trip id="331" depart="331.00" from="777629479" to="-411627206#2"/>
    <trip id="332" depart="332.00" from="412942343" to="411627152#2"/>
    <trip id="333" depart="333.00" from="412947957#1" to="-412703947"/>
    <trip id="334" depart="334.00" from="293569926#3" to="-764173144"/>
    <trip id="335" depart="335.00" from="-775173508#0" to="643065073#4"/>
    <trip id="336" depart="336.00" from="776144164" to="-412947980#3"/>
    <trip id="337" depart="337.00" from="411660409#4" to="411627181#2"/>
    <trip id="338" depart="338.00" from="412782922#8" to="701657022#1"/>
    <trip id="339" depart="339.00" from="-412382224#1" to="-412382241#0"/>
    <trip id="340" depart="340.00" from="411719207#3" to="-411712989#1"/>
    <trip id="341" depart="341.00" from="-411713052#3" to="-411310836#0"/>
    <trip id="342" depart="342.00" from="-1072866792#3" to="-764173144"/>
    <trip id="343" depart="343.00" from="411627144#2" to="-412943627#1"/>
    <trip id="344" depart="344.00" from="-412755593#1" to="412382225#9"/>
    <trip id="345" depart="345.00" from="412697659#3" to="-772820314#2"/>
    <trip id="346" depart="346.00" from="412382198#2" to="678516370#1"/>
    <trip id="347" depart="347.00" from="412947948#3" to="411658447#2"/>
    <trip id="348" depart="348.00" from="411719211" to="678516433"/>
    <trip id="349" depart="349.00" from="-763007145" to="293569939#0"/>
    <trip id="350" depart="350.00" from="411713009#8" to="678032337"/>
    <trip id="351" depart="351.00" from="413000688" to="-411310038#4"/>
    <trip id="352" depart="352.00" from="-411713023#3" to="-412973037#4"/>
    <trip id="353" depart="353.00" from="412782962#1" to="411310824#0"/>
    <trip id="354" depart="354.00" from="-412947963#5" to="-411627264#4"/>
    <trip id="355" depart="355.00" from="412382202#3" to="412382200#1"/>
    <trip id="356" depart="356.00" from="701647449" to="1370429178#4"/>
    <trip id="357" depart="357.00" from="1486993479#0" to="-411360311#1"/>
    <trip id="358" depart="358.00" from="-293569912#13" to="-762735579#0"/>
    <trip id="359" depart="359.00" from="-413073731#5" to="-412782922#2"/>
    <trip id="360" depart="360.00" from="-411360341#1" to="762991015"/>
    <trip id="361" depart="361.00" from="413073810#0" to="411360302#10"/>
    <trip id="362" depart="362.00" from="701657013" to="966858345#2-AddedOnRampEdge"/>
    <trip id="363" depart="363.00" from="412126666#1" to="-412942320#1"/>
    <trip id="364" depart="364.00" from="-293569912#3" to="412782973#5"/>
    <trip id="365" depart="365.00" from="1332082357#6" to="411692769"/>
    <trip id="366" depart="366.00" from="678499518#0" to="-411719228#0"/>
    <trip id="367" depart="367.00" from="411627097#5" to="411679575"/>
    <trip id="368" depart="368.00" from="1486993463" to="-411360350"/>
    <trip id="369" depart="369.00" from="-643065123#3" to="-413000730#0"/>
    <trip id="370" depart="370.00" from="412126623#0" to="643065060#0"/>
    <trip id="371" depart="371.00" from="-631286498#0" to="412382156#0"/>
    <trip id="372" depart="372.00" from="-412947963#4" to="701657009#0"/>
    <trip id="373" depart="373.00" from="412973089#0" to="293569968#8"/>
    <trip id="374" depart="374.00" from="1069223777#5" to="-412973066#1"/>
    <trip id="375" depart="375.00" from="-413073760#1" to="763263290#1"/>
    <trip id="376" depart="376.00" from="-701657000#0" to="240883043#2"/>
    <trip id="377" depart="377.00" from="776135726" to="411712999"/>
    <trip id="378" depart="378.00" from="377950336#0" to="-701647367"/>
    <trip id="379" depart="379.00" from="-412126670#1" to="-643065100#3"/>
    <trip id="380" depart="380.00" from="412782991#2" to="411658448"/>
    <trip id="381" depart="381.00" from="412942321#0" to="-412382210"/>
    <trip id="382" depart="382.00" from="411309998#0" to="678516396"/>
    <trip id="383" depart="383.00" from="-763272125" to="412382194#1"/>
    <trip id="384" depart="384.00" from="-411627247#1" to="763264920"/>
    <trip id="385" depart="385.00" from="411627273#1" to="-412755611#0"/>
    <trip id="386" depart="386.00" from="-411712983#1" to="293569974#0"/>
    <trip id="387" depart="387.00" from="411310022#1" to="-411360354"/>
    <trip id="388" depart="388.00" from="776442606" to="678499513#0"/>
    <trip id="389" depart="389.00" from="1130765735" to="-411627196#1"/>
    <trip id="390" depart="390.00" from="413073731#3" to="1370429168#1"/>
    <trip id="391" depart="391.00" from="412703974#2" to="1486993469-AddedOnRampEdge"/>
    <trip id="392" depart="392.00" from="-412942385#2" to="630221190"/>
    <trip id="393" depart="393.00" from="765285384" to="-412755624"/>
    <trip id="394" depart="394.00" from="411310013#3" to="-677194542#0"/>
    <trip id="395" depart="395.00" from="678499602#2" to="1486993462"/>
    <trip id="396" depart="396.00" from="643107207#3" to="643065108"/>
    <trip id="397" depart="397.00" from="-412943615#0" to="412947958"/>
    <trip id="398" depart="398.00" from="-756809433#1" to="678516435#2"/>
    <trip id="399" depart="399.00" from="292875360#2" to="412973134#2"/>
    <trip id="400" depart="400.00" from="-412943630#3" to="-412947955#2"/>
    <trip id="401" depart="401.00" from="411627104#6" to="869965761"/>
    <trip id="402" depart="402.00" from="1416510005#1" to="-411692694#0"/>
    <trip id="403" depart="403.00" from="293569999#2" to="-413073900#0"/>
    <trip id="404" depart="404.00" from="411310016#1" to="293569934#3"/>
    <trip id="405" depart="405.00" from="1072866790#0" to="-412973096#0"/>