<?xml version="1.0" encoding="UTF-8"?>

<!-- generated on 2026-02-10 12:11:20.099259 by randomTrips.py UNKNOWN
<configuration>
    <net-file value="osm.net.xml.gz"/>
    <route-file value="osm.rou.xml"/>
    <end value="1800.0"/>
    <period value="10.0"/>
</configuration>
-->

<routes xmlns:xsi="http://www.w3.org/2001/XMLSchema-instance" xsi:noNamespaceSchemaLocation="http://sumo.dlr.de/xsd/routes_file.xsd">
    <trip id="0" depart="0.00" from="31781432#1" to="-1119755525#1"/>
    <trip id="1" depart="10.00" from="-514464827" to="-496830035#1"/>
    <trip id="2" depart="20.00" from="501533706#1" to="354002733#1"/>
    <trip id="3" depart="30.00" from="679515673" to="-168337126#3"/>
    <trip id="4" depart="40.00" from="-950048572" to="-1190950332"/>
    <trip id="5" depart="50.00" from="-493633449#4" to="1339446609"/>
    <trip id="6" depart="60.00" from="-1152719016#2" to="-400097247"/>
    <trip id="7" depart="70.00" from="319100391#1" to="202367176#0"/>
    <trip id="8" depart="80.00" from="-494970774#0" to="28875339#7"/>
    <trip id="9" depart="90.00" from="521752437" to="-1034741994#2"/>
    <trip id="10" depart="100.00" from="521707224" to="485258144"/>
    <trip id="11" depart="110.00" from="-571864998" to="-31758507#1"/>
    <trip id="12" depart="120.00" from="775150630#1" to="-571542173"/>
    <trip id="13" depart="130.00" from="-264721077#2" to="-27970711#3"/>
    <trip id="14" depart="140.00" from="571542080#1" to="30178780#6"/>
    <trip id="15" depart="150.00" from="521707262#1" to="500845508#1"/>
    <trip id="16" depart="160.00" from="158980894#4" to="914677005"/>
    <trip id="17" depart="170.00" from="-745252103#0" to="240654733#1"/>
    <trip id="18" depart="180.00" from="569786429" to="30992485#2"/>
    <trip id="19" depart="190.00" from="572985475" to="28378254#0"/>
    <trip id="20" depart="200.00" from="488421239#1" to="-1235066124"/>
    <trip id="21" depart="210.00" from="-499839650#5" to="-520201755"/>
    <trip id="22" depart="220.00" from="-158978994#5" to="-500845701"/>
    <trip id="23" depart="230.00" from="-28137144#1" to="-514644129"/>
    <trip id="24" depart="240.00" from="31779824#3" to="-696616165#0"/>
    <trip id="25" depart="250.00" from="-713653311" to="-488417645"/>
    <trip id="26" depart="260.00" from="-510968152" to="757107416#7"/>
    <trip id="27" depart="270.00" from="31848825#2" to="30290022#2"/>
    <trip id="28" depart="280.00" from="-32090609#3" to="500845423#0"/>
    <trip id="29" depart="290.00" from="-31783464#0" to="-749359772"/>
    <trip id="30" depart="300.00" from="965531198#0" to="31782001#3"/>
    <trip id="31" depart="310.00" from="27965723" to="361369610#0"/>
    <trip id="32" depart="320.00" from="571167506" to="514467625"/>
    <trip id="33" depart="330.00" from="-500576950#1" to="-1211004764"/>
    <trip id="34" depart="340.00" from="-557560264#0" to="-510968243#7"/>
    <trip id="35" depart="350.00" from="-489780892#0" to="759715630#0"/>
    <trip id="36" depart="360.00" from="650564063" to="-557524224"/>
    <trip id="37" depart="370.00" from="32096450#1" to="-762048183"/>
    <trip id="38" depart="380.00" from="716015379" to="1107781447"/>
    <trip id="39" depart="390.00" from="-510501863#1" to="-507202009#0"/>
    <trip id="40" depart="400.00" from="28131774#1" to="-509782623#2"/>
    <trip id="41" depart="410.00" from="28696919#6" to="688309556"/>
    <trip id="42" depart="420.00" from="-794221559#0" to="-493633495"/>
    <trip id="43" depart="430.00" from="990223820" to="1414802833"/>
    <trip id="44" depart="440.00" from="-229527384#0" to="-1236950291#2"/>
    <trip id="45" depart="450.00" from="-28412525#1" to="31607805#3"/>
    <trip id="46" depart="460.00" from="520201774#0" to="-950275362"/>
    <trip id="47" depart="470.00" from="-156924298#0" to="-752168904"/>
    <trip id="48" depart="480.00" from="987250289" to="158842353#4"/>
    <trip id="49" depart="490.00" from="913725983#2" to="572964022"/>
    <trip id="50" depart="500.00" from="-1049263553" to="497089936#1"/>
    <trip id="51" depart="510.00" from="359127227#1" to="159609031#3"/>
    <trip id="52" depart="520.00" from="-510923563" to="31783205#0"/>
    <trip id="53" depart="530.00" from="-28417246#3" to="1006063560"/>
    <trip id="54" depart="540.00" from="1097961048" to="762066650"/>
    <trip id="55" depart="550.00" from="650428283" to="-509834728#0"/>
    <trip id="56" depart="560.00" from="1299039811#2" to="-32205551"/>
    <trip id="57" depart="570.00" from="709283820#0" to="609217168#3"/>
    <trip id="58" depart="580.00" from="-521454693#0" to="31780424#6"/>
    <trip id="59" depart="590.00" from="30290013#0" to="-31719001"/>
    <trip id="60" depart="600.00" from="509782685" to="168337126#3"/>
    <trip id="61" depart="610.00" from="514644118" to="158977636#1"/>
    <trip id="62" depart="620.00" from="-1000960261" to="-570152029"/>
    <trip id="63" depart="630.00" from="-1105228652" to="750010177#0"/>
    <trip id="64" depart="640.00" from="652143158" to="569846169"/>
    <trip id="65" depart="650.00" from="-521840792#1" to="-1368631203"/>
    <trip id="66" depart="660.00" from="651991122#2" to="760524585"/>
    <trip id="67" depart="670.00" from="-159975803#0" to="1233331729"/>
    <trip id="68" depart="680.00" from="-158810187#0" to="509162134#1"/>
    <trip id="69" depart="690.00" from="510923449" to="-29980855#2"/>
    <trip id="70" depart="700.00" from="1213298874" to="229527377#0"/>
    <trip id="71" depart="710.00" from="-510501869#2" to="637698794#8"/>
    <trip id="72" depart="720.00" from="-952207194" to="-490022865#1"/>
    <trip id="73" depart="730.00" from="168337126#0" to="500845547"/>
    <trip id="74" depart="740.00" from="-45822768" to="-539133828#3"/>
    <trip id="75" depart="750.00" from="985470924#2" to="318974596"/>
    <trip id="76" depart="760.00" from="1026274840" to="157364519#0"/>
    <trip id="77" depart="770.00" from="-29042833#1" to="-498437811#0"/>
    <trip id="78" depart="780.00" from="-571542264" to="28820337#1"/>
    <trip id="79" depart="790.00" from="-500576983#0" to="-494970760#1"/>
    <trip id="80" depart="800.00" from="-158823977#2" to="31720138#1"/>
    <trip id="81" depart="810.00" from="-500576945" to="697143557#1"/>
    <trip id="82" depart="820.00" from="572955114#1" to="-158823976#5"/>
    <trip id="83" depart="830.00" from="-501533695#4" to="32250624#1"/>
    <trip id="84" depart="840.00" from="-491265990#1" to="-30271055#1"/>
    <trip id="85" depart="850.00" from="756638442" to="28213504#6"/>
    <trip id="86" depart="860.00" from="1211017648" to="517958619"/>
    <trip id="87" depart="870.00" from="521707286#0" to="-353177111"/>
    <trip id="88" depart="880.00" from="-27973907#3" to="-990637605"/>
    <trip id="89" depart="890.00" from="-965531198#0" to="1166287637"/>
    <trip id="90" depart="900.00" from="500845407" to="335710121#6"/>
    <trip id="91" depart="910.00" from="944095644#1" to="-27984175"/>
    <trip id="92" depart="920.00" from="-835166780" to="-571864847"/>
    <trip id="93" depart="930.00" from="572985472" to="-508065011#1"/>
    <trip id="94" depart="940.00" from="-352050876#0" to="1056160787"/>
    <trip id="95" depart="950.00" from="-950043042" to="-514658304#0"/>
    <trip id="96" depart="960.00" from="-508069767" to="734867819#3"/>
    <trip id="97" depart="970.00" from="1042819543#0" to="572979239#1"/>
    <trip id="98" depart="980.00" from="229563014#1" to="-1264015510#0"/>
    <trip id="99" depart="990.00" from="998381782" to="570819045#2"/>
    <trip id="100" depart="1000.00" from="908321466" to="745172429#0"/>
    <trip id="101" depart="1010.00" from="571542176" to="-31821450#2"/>
    <trip id="102" depart="1020.00" from="1233070898" to="-491072468"/>
    <trip id="103" depart="1030.00" from="-808378522#0" to="-1388417713"/>
    <trip id="104" depart="1040.00" from="-747478605" to="949048823"/>
    <trip id="105" depart="1050.00" from="-510501873#0" to="517958287"/>
    <trip id="106" depart="1060.00" from="1102641450#1" to="-951969827"/>
    <trip id="107" depart="1070.00" from="775865188#0" to="986522010"/>
    <trip id="108" depart="1080.00" from="27960065#2" to="496829773#0"/>
    <trip id="109" depart="1090.00" from="-31732509#0" to="-521149188"/>
    <trip id="110" depart="1100.00" from="907638503" to="28416492#1"/>
    <trip id="111" depart="1110.00" from="18570808#13" to="508069751"/>
    <trip id="112" depart="1120.00" from="-1349179459#0" to="28683403"/>
    <trip id="113" depart="1130.00" from="1301524081" to="571865039"/>
    <trip id="114" depart="1140.00" from="-31769499#1" to="802393915"/>
    <trip id="115" depart="1150.00" from="-158979006#0" to="-32254944#6"/>
    <trip id="116" depart="1160.00" from="29051013#1" to="352050880"/>
    <trip id="117" depart="1170.00" from="-500871996#11" to="-29029376#4"/>
    <trip id="118" depart="1180.00" from="676150373" to="-507201880"/>
    <trip id="119" depart="1190.00" from="29046685#3" to="310393725"/>
    <trip id="120" depart="1200.00" from="-946703126" to="28680101#2"/>
    <trip id="121" depart="1210.00" from="158823989#2" to="756433647"/>
    <trip id="122" depart="1220.00" from="-485066386#2" to="494970842#2"/>
    <trip id="123" depart="1230.00" from="-501533718#3" to="-762240441#2"/>
    <trip id="124" depart="1240.00" from="32291184#8" to="-521454833"/>
    <trip id="125" depart="1250.00" from="-558693909#2" to="508317240#0"/>
    <trip id="126" depart="1260.00" from="-158827996#1" to="1107543764"/>
    <trip id="127" depart="1270.00" from="997370472#0" to="987250063"/>
    <trip id="128" depart="1280.00" from="-158828027#1" to="-490045532#1"/>
    <trip id="129" depart="1290.00" from="-510501873#0" to="754158934#2"/>
    <trip id="130" depart="1300.00" from="652257725#4" to="652158009"/>
    <trip id="131" depart="1310.00" from="-712005617#1" to="-31779824#14"/>
    <trip id="132" depart="1320.00" from="570131322" to="488417640#0"/>
    <trip id="133" depart="1330.00" from="30299007#3" to="950031147"/>
    <trip id="134" depart="1340.00" from="32091254#16" to="-1041010219"/>
    <trip id="135" depart="1350.00" from="535178029#1" to="-521454768"/>
    <trip id="136" depart="1360.00" from="32205604#6" to="758650457#2"/>
    <trip id="137" depart="1370.00" from="-30289929#2" to="-28779866#2"/>
    <trip id="138" depart="1380.00" from="-28224974#7" to="264747513"/>
    <trip id="139" depart="1390.00" from="-513465509" to="302528008"/>
    <trip id="140" depart="1400.00" from="496025709#0" to="-484501514"/>
    <trip id="141" depart="1410.00" from="31758743#1" to="-509834788#1"/>
    <trip id="142" depart="1420.00" from="1237048388" to="697069497#6"/>
    <trip id="143" depart="1430.00" from="571496694" to="-240630984#1"/>
    <trip id="144" depart="1440.00" from="-965531198#0" to="-514644052#0"/>
    <trip id="145" depart="1450.00" from="-1018716949" to="512873784#0"/>
    <trip id="146" depart="1460.00" from="31780158#17" to="-509530219#12"/>
    <trip id="147" depart="1470.00" from="501977830#2" to="240630979#18"/>
    <trip id="148" depart="1480.00" from="-983601877" to="-1046110085"/>
    <trip id="149" depart="1490.00" from="-158834829#4" to="652742499#2"/>
    <trip id="150" depart="1500.00" from="694947847#1" to="215103531#1"/>
    <trip id="151" depart="1510.00" from="570152044" to="28420392#1"/>
    <trip id="152" depart="1520.00" from="-311574642#3" to="-29977447#1"/>
    <trip id="153" depart="1530.00" from="-522390133#1" to="689860233"/>
    <trip id="154" depart="1540.00" from="520229545#3" to="572964015"/>
    <trip id="155" depart="1550.00" from="689589276" to="-488417722#0"/>
    <trip id="156" depart="1560.00" from="-508069754#0" to="-28193704#1"/>
    <trip id="157" depart="1570.00" from="515753824#1-AddedOnRampEdge" to="653352729#2"/>
    <trip id="158" depart="1580.00" from="-913407926" to="310899874#5"/>
    <trip id="159" depart="1590.00" from="-31732486#5" to="751491398#3"/>
    <trip id="160" depart="1600.00" from="590378560" to="915432812#2"/>
    <trip id="161" depart="1610.00" from="521840141#2" to="652304278#0"/>
    <trip id="162" depart="1620.00" from="-1118554673#0" to="501533715#0"/>
    <trip id="163" depart="1630.00" from="-571167593" to="752107995"/>
    <trip id="164" depart="1640.00" from="521454719" to="590303641#0"/>
    <trip id="165" depart="1650.00" from="521840141#1" to="-510923555#1"/>
    <trip id="166" depart="1660.00" from="518511798#1" to="-28275286"/>
    <trip id="167" depart="1670.00" from="637698793#13" to="572294190#1"/>
    <trip id="168" depart="1680.00" from="-496829839#0" to="534771400#1"/>
    <trip id="169" depart="1690.00" from="1109075487" to="-521752429"/>
    <trip id="170" depart="1700.00" from="520229501#0" to="-499839637#6"/>
    <trip id="171" depart="1710.00" from="-1109130857" to="-356079291#0"/>
    <trip id="172" depart="1720.00" from="-570893774#7" to="590324498#3"/>
    <trip id="173" depart="1730.00" from="880482377" to="-514801814#0"/>
    <trip id="174" depart="1740.00" from="31783464#1" to="-799538251#1"/>
    <trip id="175" depart="1750.00" from="921574572" to="158980894#2"/>
    <trip id="176" depart="1760.00" from="758697114" to="-28779864#1"/>
    <trip id="177" depart="1770.00" from="913404817" to="-32205544#0"/>
    <trip id="178" depart="1780.00" from="814876428" to="-510501901"/>
    <trip id="179" depart="1790.00" from="-28295033" to="1005099905#2"/>
</routes>
