<?xml version="1.0" encoding="UTF-8"?>

<!-- generated on 2026-06-03 14:03:02.862603 by Eclipse SUMO randomTrips.py v1.26.0
<configuration>
    <net-file value="osm.net.xml.gz"/>
    <route-file value="precalculated_routes.full.rou.xml"/>
    <fringe-factor value="5"/>
    <end value="1800.0"/>
    <period value="1.0"/>
</configuration>
-->

<!-- generated on 2026-06-03T14:03:01.873212+01:00 by Eclipse SUMO duarouter 1.26.0
<duarouterConfiguration xmlns:xsi="http://www.w3.org/2001/XMLSchema-instance" xsi:noNamespaceSchemaLocation="http://sumo.dlr.de/xsd/duarouterConfiguration.xsd">

    <input>
        <net-file value="osm.net.xml.gz"/>
        <route-files value="trips.trips.xml"/>
    </input>

    <output>
        <output-file value="precalculated_routes.full.rou.xml"/>
        <alternatives-output value="NUL"/>
    </output>

    <time>
        <begin value="0"/>
        <end value="1800.0"/>
    </time>

    <report>
        <no-warnings value="true"/>
        <ignore-errors value="true"/>
        <no-step-log value="true"/>
    </report>

</duarouterConfiguration>
-->

<routes xmlns:xsi="http://www.w3.org/2001/XMLSchema-instance" xsi:noNamespaceSchemaLocation="http://sumo.dlr.de/xsd/routes_file.xsd">
    <vehicle id="0" depart="0.00">
        <route edges="148192826 148192830 1201905562 149548149 1201906607#1 1201906607#2 1201904041 1201904040#2 1502785096 1502785097 330635974 1502785098#0 148192827 148192827-AddedOffRampEdge 199472699 1201904036 1164060588#0 638199787 638199790 1122868800#6 1122868800#0 1122868800#1 638199788 130526616#0 130526616#3 130526616#4 130526616#5 1484762403 1484762402 957722554 1484762404#3 1484762404#4 1484762404#5 176283799 312908109#1-AddedOnRampEdge 312908109#1 312908111#0 312908111#1 312908111#2 176435805 199924478 176435806#0 176435806#1 176435806#2 176435806#3 -1283813612 -1291969415 -1198895195#16 -131387938#2 637540901 637540904#2 131387893#0 638204247#2 638204247#3 638204247#4 638204248 638204248-AddedOffRampEdge 826567859 1193237157#1 1255171071 1359801386 1359801386-AddedOffRampEdge 1318757194 666853593#5 666853593#6 666853593#1 923675904 329610978#2 329610978#4 1327165698#0 330749763 733171588 641273939 1359801384 -641587776#2 -641587776#1 -641587776#0 -1196260081#1 -1196260081#0 -1273326971"/>
    </vehicle>
    <vehicle id="1" depart="1.00">
        <route edges="-547191867 -547191865#2 -547191865#0 -547191864#0 -1359521004#1 -1359521004#0 -1359520987 1384487103 727982472#0 727982472#1 727982472#2-AddedOnRampEdge 727982472#2 727982478#1-AddedOnRampEdge 727982478#1 727982478#2 641581240#1 1051744948#0 1051744948#1 1051744948#1-AddedOffRampEdge 1251012576 330755560#1-AddedOnRampEdge 330755560#1 641581241#1 330805555#0 330805555#1 330805555#1-AddedOffRampEdge 1341834326 307639087#2 -758068551#2 -758068551#1 -307639085"/>
    </vehicle>
    <vehicle id="2" depart="2.00">
        <route edges="235851213 133585200 133585204#2 133585204#4 133585204#5 235851217#0 235851217#1 235851217#3 235851217#4 235851217#5 133585195#6 133585195#9 133585195#10 752903940#0 752903939 1368908757#6 1368908757#7 1368908757#8 1368908757#9 1368908757#10 1368908757#11 1368908757#12 1368908757#12-AddedOffRampEdge 1368908757#13 1368908757#14 1136885949#0 1136885949#1-AddedOnRampEdge 1136885949#1 1136885949#1-AddedOffRampEdge 176435907#0 176435907#1-AddedOnRampEdge 176435907#1 312908111#1 312908111#2 176435805 199924478 176435806#0 176435806#1 176435806#2 176435806#3 -1283813612 -1291969415 -1198895195#16 -131387938#2 637540901 637540904#2 131387893#0 638204247#2 638204247#3 638204247#4 638204248 638204248-AddedOffRampEdge 826567859 1193237157#1 1255171071 1359801386 1359801386-AddedOffRampEdge 1318757194 666853593#5 666853593#6 666853593#1 923675904 329610978#2 329610978#4 1327165698#0 330749763 733171588 641273939 1359801384 -641587776#2 -641587776#1 -152185327#5 -152185327#4 -152185327#3 -152185327#2 -152185327#1 238059476"/>
    </vehicle>
    <vehicle id="3" depart="3.00">
        <route edges="653015432 653015434#1 653015434#2 653015434#3 653015434#4 653015434#5 653015434#6 653015434#7 653015434#8 653015434#9 653015434#10 653015434#11 -653015438#3 -653015438#2 -653015438#1 -653015438#0 653015451 718854816#0 653020624#0 653020624#1 -653020623#1 -653020623#0 653015393#4 1420722491 718854816#8 653020612 -653020614#1 -653020614#0 1212468840 200552296 1434787171 827079206 1258103242#0 1425525166 1422211880#0 1422211880#1 1423770721#0 200552287#0 200552287#1 200552287#2 200552287#3 200552297#6 200552297#1 653029537#0 653029537#1 653029537#2 653029534 200552285#0 200552285#1 200552285#4 200552285#7 347913573 1124017757 176435910#0 176435910#0-AddedOffRampEdge 176435910#2 176435910#3 176435910#3-AddedOffRampEdge 176435910#5 758068554 1194201666#0 1194201666#1 1194201666#2-AddedOnRampEdge 1194201666#2 1194201666#2-AddedOffRampEdge 1194201666#3 1251012583 1196008889 1131357064 1131357063#0 1293331872 1131357062 1131357060 1131357059#0 1262765715 176438714#0 176438714#1 176438714#1-AddedOffRampEdge 1379623427#0 1379623427#0-AddedOffRampEdge 1379623427#1 1379623427#2-AddedOnRampEdge 1379623427#2 201054329#7 201054329#1 176454614 201054328#8 201054328#1 201054328#2 176466266#0 176466266#1 -176437747#3 132203752 -132203773#1 -132203773#0"/>
    </vehicle>
    <vehicle id="4" depart="4.00">
        <route edges="-738127675 238920704 -238920705#2 -238920705#1 -1246204772#12 -1246204772#3 -1246204772#2 -1246204772#0 -637500988 331650461 331472536#0 148072667#0 148072667#1 738087571 1193446791 1193446788 1120089269 1359551872#0 1359551873#0 1234531321#0 1234531321#4 1234531321#5 1234531321#6 1359551875#0 1359551875#1 1359551876#1 1120110645#0 1120110645#1 1120110645#2 1120110645#4 1120110645#5 1120110644 1120110643#0 1120110642 176466274#0 199303262#1 199303262#2 1196722496#1 201054328#4 201054328#5 201054328#6 176438886#0 176438886#1 176438886#2 201054329#3 201054329#4 201054329#5 176438721#0 176438721#1 1379623426 1379623428#0 1386038214 1131357065#0 1131357055 1131357057#0 1131357066#0 1131357066#1 1131357067 1131357087 176438522 1196008892#0-AddedOnRampEdge 1196008892#0 1196008892#2 1196008892#2-AddedOffRampEdge 1263623702 1263623703 1251012584#0 1251012584#1 1251012584#1-AddedOffRampEdge 1251012584#2 1251012584#3 708462429 1194201671#0 1194201671#1 1194201671#2-AddedOnRampEdge 1194201671#2 1194201671#5 1194201671#6 1124029387 1124029389 1073693353#2 1073693353#3 1131823616 200552284#0 200552284#0-AddedOffRampEdge 200552284#1 200552284#2 200552284#4 653029543 653029540#1 653029540#2 200552297#3 200552297#4 200552288#0 200552288#1 200552288#2 1258103241 1258103242#0 1425525166 1422211880#0 1422211880#1 1423770721#0 200552287#0 -1365598450 653024334#0 653024334#1 -653029482 653029480#0 653029480#1 -1306367623"/>
    </vehicle>
    <vehicle id="5" depart="5.00">
        <route edges="-240971226#3 -444072257#3 -444072257#1 1331868398 133585211#2 133585211#3 133585211#5 235851217#3 235851217#4 235851217#5 133585195#6 133585195#9 133585195#10 176436959#0 1120240446#2-AddedOnRampEdge 1120240446#2 1120240446#5 1120240446#6 1120240446#7 1120240446#10 1120240446#11 1120240399#0 1120240399#1 1120240400 1120240398#0 1120240408 1120240442 199303262#0 199303262#1 199303262#2 1196722496#1 201054328#4 201054328#5 201054328#6 176438886#0 176438886#1 176438886#2 201054329#3 176438727 1272559936#3 637540679 -1273993631 1272559935 1316117842#1 1272559925 1316117844 238406472#0 238406472#0-AddedOffRampEdge 763036195 727982482#2-AddedOnRampEdge 727982482#2 727982482#2-AddedOffRampEdge 727982482#4 727982482#5 727982482#6-AddedOnRampEdge 727982482#6 176505758#0 1119276189#0 131832426#0 131832403#0 131832403#2"/>
    </vehicle>
    <vehicle id="6" depart="6.00">
        <route edges="-1206059502 -1417081857#2 -131390664 131390693#0 131390693#1 1304653431 176466284#0 1304653433#0 1304653433#1 1304653433#2 176466275#0 1304653434 1011974627#0 1011974627#1 1120240377 1120240447#0 1120240442 199303262#0 199303262#1 199303262#2 1196722496#1 201054328#4 201054328#5 201054328#6 176438886#0 176438886#1 176438886#2 201054329#3 201054329#4 201054329#5 176438721#0 176438721#1 1379623426 1379623428#0 1386038214 1131357065#0 1131357055 1131357057#0 1131357066#0 1131357066#1 1131357067 1131357087 176438522 1196008892#0-AddedOnRampEdge 1196008892#0 1196008892#2 1196008892#2-AddedOffRampEdge 1263623702 1263623703 1251012584#0 1251012584#1 1251012584#1-AddedOffRampEdge 1251012584#2 1251012584#3 708462429 1194201670 727982474 1194201669#0 1194201669#1 1384487103 727982472#0 727982472#1 727982472#2-AddedOnRampEdge 727982472#2 727982478#1-AddedOnRampEdge 727982478#1 727982478#2 641581240#1 330788581#1 330788581#1-AddedOffRampEdge 742086809 742086809-AddedOffRampEdge 176505753 777918906-AddedOnRampEdge 777918906 330754788#0 330754788#0-AddedOffRampEdge 1111607435 1194829632 637826134 1194829638 239524475 1298948773#1 1298948773#2 1298948773#4 1298948773#6 1376004179#0 238823803#0 238823803#2 238823803#3 -238823803#3"/>
    </vehicle>
    <vehicle id="7" depart="7.00">
        <route edges="152185266 152185277#5 152185277#6 152185277#7 -152185250 238847163#3 238847163#4 238847163#5 152185212#0 152185212#1 -1273326972 1196260081#0 1196260081#1 -997383384 -997453244#2 137920977#0 137920977#1 137920968#0 137920968#2 137920968#3 137920968#4 137920968#5 137920968#6 137920968#7 137920968#8 137920968#9"/>
    </vehicle>
    <vehicle id="8" depart="8.00">
        <route edges="-286526508#0 1011974627#1 1120240377 1120240447#0 1120240442 1120240443 1120240391#0 1120240391#2 331804705#0 331804705#2 331804705#3 1368908757#0 1368908757#1 1368908757#4 1368908757#6 752903937 1359273442 1193228311#1 1073336605 1073336604 1120240446#0 1120240446#2-AddedOnRampEdge 1120240446#2 1120240446#5 1120240446#6 1120240446#7 176437029#0"/>
    </vehicle>
    <vehicle id="9" depart="9.00">
        <route edges="401893087#2 401893087#3 -401893085#3 -401893085#1 -401893085#0 312929265#0 312929265#1 200544966#0 200544966#1 200544966#2 200544966#3 200544966#4 200544966#5 200544966#6 200544966#7 200544966#8 200544966#9 200544966#10 200544966#11 200544966#12 200544966#13 200544966#14 1512986404 1482414636 1503296031 638270385 330788580 330783649 641581240#1 1051744948#0 1051744948#1 1051744948#1-AddedOffRampEdge 1251012576 330755560#1-AddedOnRampEdge 330755560#1 641581241#1 330805555#0 330805555#1 330805555#1-AddedOffRampEdge 330805555#2 330805555#3 727982475#0 727982475#0-AddedOffRampEdge 727982475#1 727982475#1-AddedOffRampEdge 1371040191 1371040191-AddedOffRampEdge 727982479 1194201666#1 1194201666#2-AddedOnRampEdge 1194201666#2 1194201666#2-AddedOffRampEdge 1194201666#3 1251012583 1196008889 708462427#0 1196008891 1196008893#0-AddedOnRampEdge 1196008893#0 1196008893#0-AddedOffRampEdge 1196008893#2 1196008893#2-AddedOffRampEdge 1196008893#3 1196008893#4 1196008893#4-AddedOffRampEdge 1196008893#5 1196008893#6 1196008893#7 1196008893#8-AddedOnRampEdge 1196008893#8 1196008893#10 1196008893#11 1196008893#11-AddedOffRampEdge 312908106#2 1484762404#0 1484762404#1 176435239 -1484762402 -1484762403 -130526616#6 -130526616#4 -130526616#3 -130526616#2 638199783 1122868800#3 1122868800#4 638199785 -1122868797 -1164060588#1 201226341 1081423624 201377026#0 1081423645 117168830 1201906608 1225604218 148192839#1 148192839#2 148192839#3 637839346 1115889346#0 1115889346#1 148201652 -1115889345"/>
    </vehicle>
    <vehicle id="10" depart="10.00">
        <route edges="-639118114 -639118117#0 -1450462381#1 1450462382#8 -1388720000#1 822355101 1474592022#1 1108813226#0 1103670864#1 1103670864#5 1108534645#0 1108534645#2 1273567760 639137233 1108398217#2 130525282#0 130525282#1 199924460#0 347913570#1 347913570#2 1073693353#4 1124017758 1124017757 176435910#0 176435910#0-AddedOffRampEdge 176435910#2 176435910#3 176435910#3-AddedOffRampEdge 176435910#5 727982474 1194201669#0 1194201669#1 1384487103 727982472#0 727982472#1 727982472#2-AddedOnRampEdge 727982472#2 727982478#1-AddedOnRampEdge 727982478#1 727982478#2 641581240#1 1051744948#0 637921506 -200544965#5 -200544965#3 -200544965#2 -200544965#1 -200544965#0 -200544966#11 -200544966#10 -200544966#9 -200544966#8 -200544966#7 -200544966#6"/>
    </vehicle>
    <vehicle id="11" depart="11.00">
        <route edges="730654771#2 653015393#0 653015393#1 653015393#2 653015393#3 653015393#4 1420722491 718854816#8 653020612 -653020614#1 -653020614#0 1212468840 200552296 1434787171 827079206 1258103242#0 1425525166 1422211880#0 1422211880#1 1423770721#0 200552287#0 200552287#1 200552287#2 200552287#3 200552297#6 200552297#1 653029537#0 653029537#1 653029537#2 653029534 200552285#0 200552285#1 200552285#4 200552285#7 1124017759 1073693353#1 1073693353#2 1073693353#3 1131823616 200552284#0 200552284#0-AddedOffRampEdge 200552284#1 200552284#2 200552284#4 653029543 653029540#1 653029554#0 -653029549"/>
    </vehicle>
    <vehicle id="12" depart="12.00">
        <route edges="-137920968#10 -137920968#8 -137920968#7 -137920968#6 -137920968#5 -137920968#4 -137920968#3 -137920968#2 -137920968#1 137920977#2 137920977#3 -602993950#3 -602993950#1 1359801385 641273941 330749762 330749763 1194829629 330751729 330751807#1 330751807#2 1124067133#0 1124067133#0-AddedOffRampEdge 176505732#0 176505732#1 777918900 742086808#1-AddedOnRampEdge 742086808#1 330755560#1-AddedOnRampEdge 330755560#1 641581241#1 330805555#0 330805555#1 330805555#1-AddedOffRampEdge 330805555#2 330805555#3 727982475#0 727982475#0-AddedOffRampEdge 727982475#1 727982475#1-AddedOffRampEdge 1371040191 1371040191-AddedOffRampEdge 727982479 1194201666#1 1194201666#2-AddedOnRampEdge 1194201666#2 1194201666#2-AddedOffRampEdge 1194201666#3 1251012583 1196008889 708462427#0 1196008891 1196008893#0-AddedOnRampEdge 1196008893#0 1196008893#0-AddedOffRampEdge 1196008893#2 1196008893#2-AddedOffRampEdge 1196008893#3 1196008893#4 1196008893#4-AddedOffRampEdge 1196008893#5 1196008893#6 1196008893#7 1196008893#8-AddedOnRampEdge 1196008893#8 1196008893#10 176283801#0 176283801#0-AddedOffRampEdge 176283801#1 176283801#2-AddedOnRampEdge 176283801#2 176283559 -133585213#14 -133585214#35"/>
    </vehicle>
    <vehicle id="13" depart="13.00">
        <route edges="637884000 130526616#5 1484762403 1484762402 957722554 1484762404#3 1484762404#4 1484762404#5 176283799 312908109#1-AddedOnRampEdge 312908109#1 312908111#0 312908111#1 312908111#2 312908111#3 312908111#4 312908111#5 199924473"/>
    </vehicle>
    <vehicle id="14" depart="14.00">
        <route edges="367369440#0 -367369440#0 200132712 366762316#2 639066929 -639066930#0 -131387930#1 638204246 638204247#4 638204248 638204248-AddedOffRampEdge 826567859 1193237157#1 1255171071 1359801386 1359801386-AddedOffRampEdge 1318757194 666853593#5 666853593#6 666853593#1 923675904 329610978#2 329610978#4 1327165698#0 330749763 1194829629 330751729 330751807#1 330751807#2 330747564 330798297 330747566 152185326#1 200561726#0 991888359 330747216#0 330747216#1 329610347"/>
    </vehicle>
    <vehicle id="15" depart="15.00">
        <route edges="131387905#1 131387905#3 131387905#4 131387905#5 131387905#6 131387905#7 131387905#8 131387905#9 131387905#11 -637561227 -1198895195#2 -1198895195#1 176438523 1196008893#0-AddedOnRampEdge 1196008893#0 1196008893#0-AddedOffRampEdge 1196008893#2 1196008893#2-AddedOffRampEdge 826591732 312908111#10 1270806050 1131357075#0 1131357076 1131357077#0 1196008890 1131357078 1196008892#0-AddedOnRampEdge 1196008892#0 1196008892#2 1196008892#2-AddedOffRampEdge 1263623702 1263623703 1251012584#0 1251012584#1 1251012584#1-AddedOffRampEdge 1251012584#2 1251012584#3 708462429 1194201671#0 1194201671#1 1194201671#2-AddedOnRampEdge 1194201671#2 1194201671#5 1194201671#6 1124029387 1073693352#0 1124029386 347913567 347913567-AddedOffRampEdge 639137232 -1108534645#1 -1103670864#5 -1103670864#4 -1103670864#0 1108813225 734695484 1474592023 1388720000#0 -1450462382#9 1450462382#8 -1388720000#1 822355101"/>
    </vehicle>
    <vehicle id="16" depart="16.00">
        <route edges="-653015508#3 653015510 653015519#2 653015519#3 653015519#4 653015515#0 653015515#1 1460703645#1 1460703645#2 -653015486 653015487#1 653015484 -1212468836#0 1212468837 200552296 1434787171 827079206 1258103242#0 1425525166 1422211880#0 1422211880#1 1423770721#0 200552287#0 200552287#1 200552287#2 200552287#3 200552297#6 200552297#1 653029537#0 653029537#1 653029537#2 653029534 200552285#0 200552285#1 200552285#4 200552285#7 347913573 1124017757 176435910#0 176435910#0-AddedOffRampEdge 176435910#2 176435910#3 176435910#3-AddedOffRampEdge 176435910#5 758068554 1194201666#0 1194201666#1 1194201666#2-AddedOnRampEdge 1194201666#2 1194201666#2-AddedOffRampEdge 1194201666#3 1251012583 1196008889 708462427#0 1196008891 1196008893#0-AddedOnRampEdge 1196008893#0 1196008893#0-AddedOffRampEdge 1196008893#2 1196008893#2-AddedOffRampEdge 1196008893#3 1196008893#4 1196008893#4-AddedOffRampEdge 1196008893#5 1196008893#6 1196008893#7 1196008893#8-AddedOnRampEdge 1196008893#8 1196008893#10 1196008893#11 1196008893#11-AddedOffRampEdge 312908106#2 1484762404#0 1484762404#1 176435239 -1484762402 -1484762403 -130526616#6 -130526616#4 -130526616#3 -130526616#2 638199783 1122868800#3 1122868800#4 638199785 -1122868797 -1164060588#1 201226341 1081423624 201377026#0 1081423645 117168830 1201906608 1225604217#0 1379648600 1379648596 1379648594#0 1379648594#2"/>
    </vehicle>
    <vehicle id="17" depart="17.00">
        <route edges="637221281#5 -637221281#5 -637221281#4 -637221281#2 -637221281#1 -637221281#0 1270806050 1131357075#0 1131357076 131387911 199472730 199472736 1124073979#0 200384685"/>
    </vehicle>
    <vehicle id="18" depart="18.00">
        <route edges="639089040 1115918725 1115918724#1 758068551#0 758068551#1 758068551#2 1318754244 330805555#3 727982475#0 727982475#0-AddedOffRampEdge 1198171436 1194201669#1 1384487103 727982472#0 727982472#1 727982472#2-AddedOnRampEdge 727982472#2 727982478#1-AddedOnRampEdge 727982478#1 727982478#2 641581240#1 330788581#1 330788581#1-AddedOffRampEdge 742086809 742086809-AddedOffRampEdge 330755380 777918899 330754790 777918905 1124067135#0 1124067135#1 1124067135#2 329609967#0 329609967#1 330751628 330751549 641273939 1359801384 -641587776#2 -641587776#1 -152185327#5 -152185327#4 152185317"/>
    </vehicle>
    <vehicle id="19" depart="19.00">
        <route edges="200552300#0 -653015482 -653015481 200552298#1 200552313#4 200552288#2 1258103241 1258103242#0 1425525166 1422211880#0 1422211880#1 1423770721#0 200552287#0 200552287#1 200552287#2 200552287#3 200552297#6 200552297#1 653029537#0 653029537#1 653029537#2 653029534 200552285#0 200552285#1 200552285#4 200552285#7 347913573 1124017757 176435910#0 176435910#0-AddedOffRampEdge 176435910#2 176435910#3 176435910#3-AddedOffRampEdge 176435910#5 758068554 1194201666#0 1194201666#1 1194201666#2-AddedOnRampEdge 1194201666#2 1194201666#2-AddedOffRampEdge 1194201666#3 1251012583 1196008889 1131357064 1131357063#0 1293331872 1131357062 1131357060 1131357059#0 1262765715 176438714#0 176438714#1 176438714#1-AddedOffRampEdge 1379623427#0 1379623427#0-AddedOffRampEdge 1379623427#1 1379623427#2-AddedOnRampEdge 1379623427#2 201054329#7 201054329#1 176454614 201054328#8 201054328#1 201054328#2 176466266#0 176466266#1 1196722497#3 1120240379#0 1120240378 1120240407 1304653435#0 1011974628#0-AddedOnRampEdge 1011974628#0 176466290#0 176466281#0 1304653438 1234531318 330927351#0 148208497#0 148208497#1 148208497#1-AddedOffRampEdge 637497110 1417081854#0 -1417081854#0 -1417081855 -131390696"/>
    </vehicle>
    <vehicle id="20" depart="20.00">
        <route edges="-307638695#1 307638683#0 -1482414637#0 -1482414638 1503296029 1503296027#1 1503296031 638270385 330788580 330783649 641581240#1 330788581#1 330788581#1-AddedOffRampEdge 742086809 742086809-AddedOffRampEdge 330755380 777918899 330754790 777918905 1124067135#0 1124067135#1 1124067135#2 329609967#0 329609967#1 330751628 330751549 1194829628 1327165697#0 1327165697#1 -641587771#1 -641587771#0 -137920977#2 137920968#0 137920968#2 -641263787"/>
    </vehicle>
    <vehicle id="21" depart="21.00">
        <route edges="-132204225#2 132204222#0 -132204222#0 132204225#0 176436942#1 1289374246 1368908757#8 1368908757#9 1368908757#10 1368908757#11 1368908757#12 1368908757#12-AddedOffRampEdge 1368908757#13 1368908757#14 1136885949#0 1136885949#1-AddedOnRampEdge 1136885949#1 1136885949#1-AddedOffRampEdge 176435907#0 176435907#1-AddedOnRampEdge 176435907#1 312908111#1 312908111#2 312908111#3 312908111#4 312908111#5 312908111#6 312908111#8 312908111#8-AddedOffRampEdge 312908111#9 312908111#10 1270806050 1131357075#0 1131357076 1131357077#0 1196008890 1131357078 1196008892#0-AddedOnRampEdge 1196008892#0 1196008892#2 1196008892#2-AddedOffRampEdge 1263623702 1263623703 1251012584#0 1251012584#1 1251012584#1-AddedOffRampEdge 1251012584#2 1251012584#3 708462429 1194201670 727982474 1194201669#0 1194201669#1 1384487103 727982472#0 727982472#1 727982472#2-AddedOnRampEdge 727982472#2 727982478#1-AddedOnRampEdge 727982478#1 727982478#2 641581240#1 1051744948#0 1051744948#1 1051744948#1-AddedOffRampEdge 1251012576 330755560#1-AddedOnRampEdge 330755560#1 330783646 330778927-AddedOnRampEdge 330778927 1307641004 330778641 -1307641007 -330787960#3 -330787960#2 -330787960#1"/>
    </vehicle>
    <vehicle id="22" depart="22.00">
        <route edges="-1413266326 -653029554#2 -653029554#1 -653029554#0 653029540#2 200552297#3 200552297#4 200552297#5 200552297#6 200552297#1 653029537#0 653029537#1 653029537#2 653029534 200552285#0 200552285#1 200552285#4 200552285#7 347913573 1124017757 176435910#0 176435910#0-AddedOffRampEdge 176435910#2 176435910#3 176435910#3-AddedOffRampEdge 176435910#5 758068554 1194201666#0 1194201666#1 1194201666#2-AddedOnRampEdge 1194201666#2 1194201666#2-AddedOffRampEdge 1306073034 -131387913#4 -638242884"/>
    </vehicle>
    <vehicle id="23" depart="23.00">
        <route edges="1457056519 730443807 1120110645#0 1120110645#1 1120110645#2 1120110645#4 1120110645#5 1120110644 1120110643#0 1120110642 176466274#0 199303262#1 199303262#2 1196722496#1 201054328#4 201054328#5 201054328#6 176438886#0 176438886#1 176438886#2 201054329#3 201054329#4 201054329#5 176438721#0 176438721#1 1379623426 1379623428#0 1386038214 1131357065#0 1131357055 1131357057#0 1131357066#0 1131357066#1 1131357067 1131357087 176438522 1196008892#0-AddedOnRampEdge 1196008892#0 1196008892#2 1196008892#2-AddedOffRampEdge 1263623702 1263623703 1251012584#0 1251012584#1 1251012584#1-AddedOffRampEdge 1251012584#2 1251012584#3 708462429 1194201670 727982474 1194201669#0 1194201669#1 1384487103 727982472#0 727982472#1 727982472#2-AddedOnRampEdge 727982472#2 727982478#1-AddedOnRampEdge 727982478#1 727982478#2 641581240#1 330788581#1 330788581#1-AddedOffRampEdge 742086809 742086809-AddedOffRampEdge 330755380 777918899 330754790 777918905 1124067135#0 1124067135#1 1124067135#2 329609967#0 329609967#1 330751628 1378365274 330751729 137923698 -738479800#1 -738479800#0"/>
    </vehicle>
    <vehicle id="24" depart="24.00">
        <route edges="-653015470 -653015474#6 -653015474#5 -653015474#4 -653015476 653015477 718854816#4 718854816#5 718854816#6 718854816#7 718854816#8 653020612 -653020614#1 -653020614#0 1212468840 200552296 1434787171 827079206 1258103242#0 1425525166 1422211880#0 1422211880#1 1423770721#0 200552287#0 200552287#1 200552287#2 200552287#3 200552297#6 200552297#1 653029537#0 653029537#1 653029537#2 653029534 200552285#0 200552285#1 200552285#4 200552285#7 347913573 1124017757 176435910#0 176435910#0-AddedOffRampEdge 176435910#2 176435910#3 176435910#3-AddedOffRampEdge 176435910#5 758068554 1194201666#0 1194201666#1 1194201666#2-AddedOnRampEdge 1194201666#2 1194201666#2-AddedOffRampEdge 1194201666#3 1251012583 1196008889 1131357064 1131357063#0 1293331872 1131357062 1131357060 1131357059#0 1262765715 176438714#0 176438714#1 176438714#1-AddedOffRampEdge 1379623427#0 1379623427#0-AddedOffRampEdge 1379623427#1 1379623427#2-AddedOnRampEdge 1379623427#2 201054329#7 201054329#1 176454614 201054328#8 201054328#1 201054328#2 176466266#0 176466266#1 1196722497#3 1120240379#0 1120240378 1120240407 1304653435#0 1011974628#0-AddedOnRampEdge 1011974628#0 176466290#0 1304653437 1304653434 1011974627#0 1285292285#0 -286526510#1"/>
    </vehicle>
    <vehicle id="25" depart="25.00">
        <route edges="-547191836#4 307636929 -1482414638 1503296029 1503296027#1 1503296031 638270385 330788580 330783649 641581240#1 330788581#1 330788581#1-AddedOffRampEdge 742086809 742086809-AddedOffRampEdge 330755380 777918899 330754790 777918904 777918903 330755453#0 1124067507 -238823176 -239321463#0 730431837"/>
    </vehicle>
    <vehicle id="26" depart="26.00">
        <route edges="152185208#0 152185208#1 152185322#4 641587776#2 641273937 1359801385 641273944 1327165697#1 639036205#0 639036205#1 666853593#3 666853593#4 666853593#5 666853591 329610977#1 -1359801383 200132702#3"/>
    </vehicle>
    <vehicle id="27" depart="27.00">
        <route edges="-202232576 202232575#1 -821993084#0 202232566#0 312911124#8-AddedOnRampEdge 312911124#8 312911124#9 312911124#9-AddedOffRampEdge 312911124#10 312911124#10-AddedOffRampEdge 822319090 822319090-AddedOffRampEdge 727982473 1376632777#0 1194201670 758068554 1194201666#0 1194201666#1 1194201666#2-AddedOnRampEdge 1194201666#2 1194201666#2-AddedOffRampEdge 1194201666#3 1251012583 1196008889 708462427#0 199472730 199472736 1198895195#2 1198895195#3 1198895195#4 -716599615#2 315367099"/>
    </vehicle>
    <vehicle id="28" depart="28.00">
        <route edges="-201730804 -201730845#1 1120240399#1 1120240400 1120240398#0 1120240408 1120240442 199303262#0 199303262#1 199303262#2 1196722496#1 201054328#4 201054328#5 201054328#6 176438886#0 176438886#1 176438886#2 201054329#3 176438727 1272559936#3 637540679 -1273993631 1272559935 1316117842#1 1272559925 1316117844 238406472#0 238406472#0-AddedOffRampEdge 763036195 727982482#2-AddedOnRampEdge 727982482#2 727982482#2-AddedOffRampEdge 727982482#4 637507305 312911124#6 312911124#6-AddedOffRampEdge 312911124#7 312911124#8-AddedOnRampEdge 312911124#8 202232594#0 202232594#2 202232594#4 202232594#8 1010880210"/>
    </vehicle>
    <vehicle id="29" depart="29.00">
        <route edges="828536839#2 637572249 -828536840 176438023#7 201054329#1 176454614 201054328#8 201054328#1 201054328#2 176466266#0 176466266#1 1196722497#3 1120240379#0 1120240378 1120240407 1120240408 1120240442 199303262#0 199303262#1 1416986051#0 201077270#0 1416986055#1 1416986055#2 1416986056#0 1416986056#3 -131832393#5 -131832393#4 -131832393#2 131832354#0 131832354#5 131832354#9 -200375251#7 1183348101#0 201224249"/>
    </vehicle>
    <vehicle id="30" depart="30.00">
        <route edges="131832371#7 131832360#1 131832360#5 1359551876#1 1120110645#0 1120110645#1 1120110645#2 1120110645#4 1120110645#5 1120110644 1120110643#0 1120110642 176466274#0 199303262#1 199303262#2 1196722496#1 201054328#4 201054328#5 201054328#6 176438886#0 176438886#1 176438886#2 201054329#3 201054329#4 201054329#5 176438721#0 176438721#1 1379623426 1379623428#0 1386038214 1131357065#0 1131357055 1131357057#0 1131357066#0 1131357066#1 1131357067 1131357087 176438522 1196008892#0-AddedOnRampEdge 1196008892#0 1196008892#2 1196008892#2-AddedOffRampEdge 1263623702 1263623703 1251012584#0 1251012584#1 1251012584#1-AddedOffRampEdge 1251012584#2 1251012584#3 708462429 1194201670 727982474 1194201669#0 1194201669#1 1384487103 727982472#0 727982472#1 727982472#2-AddedOnRampEdge 727982472#2 727982478#1-AddedOnRampEdge 727982478#1 727982478#2 641581240#1 330788581#1 330788581#1-AddedOffRampEdge 742086809 742086809-AddedOffRampEdge 176505753 777918906-AddedOnRampEdge 777918906 330754788#0 330754788#0-AddedOffRampEdge 1111607435 1194829632 637826134 1194829638 239524475 1298948773#1 1298948773#2 1298948773#4 1298948773#6 1376004179#0 1376004179#2 1376004179#3 238823795#0 238823795#1 238823795#2 238823795#3 238823799"/>
    </vehicle>
    <vehicle id="31" depart="31.00">
        <route edges="637826146#0 1194829634#1 1194829634#2 1194829634#3 237803499 1011642338 1235146651#0 1235146651#1 312929265#0 312929265#1 200544966#0 200544966#1 200544966#2 200544966#3 200544966#4 200544966#5 200544966#6 200544966#7 -637583269#1 1012086142#1 1012086142#2 1012086142#3 1012096500#0 1012096500#1 1181544500#0 1181544500#1 547191836#0 -547191845 -1011955543#1 -547191847 -547191848#1 547191849"/>
    </vehicle>
    <vehicle id="32" depart="32.00">
        <route edges="-307639058 -131387940#1 -131387940#0 -1318757196#5 -1318757196#4 -1318757196#3 -1318757196#2 -1318757196#1 -1318757196#0 1251012583 1196008889 1131357064 1196008890 1131357078 1196008892#0-AddedOnRampEdge 1196008892#0 -200130354#7 -200130361 -131387899#6"/>
    </vehicle>
    <vehicle id="33" depart="33.00">
        <route edges="-637897454 -637897458#0 131832371#7 131832360#1 131832360#5 1359551876#1 1120110645#0 1120110645#1 1120110645#2 1120110645#4 1120110645#5 1120110644 1120110643#0 1120110642 176466274#0 199303262#1 199303262#2 1196722496#1 201054328#4 201054328#5 201054328#6 176438886#0 176438886#1 176438886#2 201054329#3 201054329#4 201054329#5 176438721#0 176438721#1 1379623426 1379623428#0 1386038214 1131357065#0 1131357055 1131357057#0 1131357066#0 1131357066#1 1131357067 1131357087 176438522 1196008892#0-AddedOnRampEdge 1196008892#0 1196008892#2 1196008892#2-AddedOffRampEdge 1263623702 1263623703 1251012584#0 1251012584#1 1251012584#1-AddedOffRampEdge 1251012584#2 1251012584#3 708462429 1194201670 727982474 1194201669#0 1194201669#1 1384487103 727982472#0 727982472#1 727982472#2-AddedOnRampEdge 727982472#2 727982478#1-AddedOnRampEdge 727982478#1 727982478#2 641581240#1 330788581#1 330788581#1-AddedOffRampEdge 742086809 742086809-AddedOffRampEdge 176505753 777918906-AddedOnRampEdge 777918906 330754788#0 330754788#0-AddedOffRampEdge 330754788#7 1194829636 1194829634#0 -637826146#3"/>
    </vehicle>
    <vehicle id="34" depart="34.00">