<?xml version="1.0" encoding="UTF-8"?>

<!-- generated on 2026-06-03 14:03:01.291531 by Eclipse SUMO randomTrips.py v1.26.0
<configuration>
    <net-file value="osm.net.xml.gz"/>
    <route-file value="precalculated_routes.full.rou.xml"/>
    <fringe-factor value="5"/>
    <end value="1800.0"/>
    <period value="1.0"/>
</configuration>
-->

<routes xmlns:xsi="http://www.w3.org/2001/XMLSchema-instance" xsi:noNamespaceSchemaLocation="http://sumo.dlr.de/xsd/routes_file.xsd">
    <trip id="0" depart="0.00" from="148192826" to="-1273326971"/>
    <trip id="1" depart="1.00" from="-547191867" to="-307639085"/>
    <trip id="2" depart="2.00" from="235851213" to="238059476"/>
    <trip id="3" depart="3.00" from="653015432" to="-132203773#0"/>
    <trip id="4" depart="4.00" from="-738127675" to="-1306367623"/>
    <trip id="5" depart="5.00" from="-240971226#3" to="131832403#2"/>
    <trip id="6" depart="6.00" from="-1206059502" to="-238823803#3"/>
    <trip id="7" depart="7.00" from="152185266" to="137920968#9"/>
    <trip id="8" depart="8.00" from="-286526508#0" to="176437029#0"/>
    <trip id="9" depart="9.00" from="401893087#2" to="-1115889345"/>
    <trip id="10" depart="10.00" from="-639118114" to="-200544966#6"/>
    <trip id="11" depart="11.00" from="730654771#2" to="-653029549"/>
    <trip id="12" depart="12.00" from="-137920968#10" to="-133585214#35"/>
    <trip id="13" depart="13.00" from="637884000" to="199924473"/>
    <trip id="14" depart="14.00" from="367369440#0" to="329610347"/>
    <trip id="15" depart="15.00" from="131387905#1" to="822355101"/>
    <trip id="16" depart="16.00" from="-653015508#3" to="1379648594#2"/>
    <trip id="17" depart="17.00" from="637221281#5" to="200384685"/>
    <trip id="18" depart="18.00" from="639089040" to="152185317"/>
    <trip id="19" depart="19.00" from="200552300#0" to="-131390696"/>
    <trip id="20" depart="20.00" from="-307638695#1" to="-641263787"/>
    <trip id="21" depart="21.00" from="-132204225#2" to="-330787960#1"/>
    <trip id="22" depart="22.00" from="-1413266326" to="-638242884"/>
    <trip id="23" depart="23.00" from="1457056519" to="-738479800#0"/>
    <trip id="24" depart="24.00" from="-653015470" to="-286526510#1"/>
    <trip id="25" depart="25.00" from="-547191836#4" to="730431837"/>
    <trip id="26" depart="26.00" from="152185208#0" to="200132702#3"/>
    <trip id="27" depart="27.00" from="-202232576" to="315367099"/>
    <trip id="28" depart="28.00" from="-201730804" to="1010880210"/>
    <trip id="29" depart="29.00" from="828536839#2" to="201224249"/>
    <trip id="30" depart="30.00" from="131832371#7" to="238823799"/>
    <trip id="31" depart="31.00" from="637826146#0" to="547191849"/>
    <trip id="32" depart="32.00" from="-307639058" to="-131387899#6"/>
    <trip id="33" depart="33.00" from="-637897454" to="-637826146#3"/>
    <trip id="34" depart="34.00" from="-239705673" to="730654771#1"/>
    <trip id="35" depart="35.00" from="641263785" to="-653015480"/>
    <trip id="36" depart="36.00" from="152185315" to="1098773072"/>
    <trip id="37" depart="37.00" from="653020595#0" to="1251038696#1-AddedOnRampEdge"/>
    <trip id="38" depart="38.00" from="-547191832" to="-547191835#0"/>
    <trip id="39" depart="39.00" from="131832385#2" to="-637563264#1"/>
    <trip id="40" depart="40.00" from="132203755#0" to="653015507"/>
    <trip id="41" depart="41.00" from="-653029560#1" to="-307638694#0"/>
    <trip id="42" depart="42.00" from="997383383#0" to="131832423#4"/>
    <trip id="43" depart="43.00" from="-137920949#1" to="-131832354#12"/>
    <trip id="44" depart="44.00" from="-152185224" to="200552287#0"/>
    <trip id="45" depart="45.00" from="330777279" to="1181544500#0"/>
    <trip id="46" depart="46.00" from="-131832396#2" to="1011642335#1"/>
    <trip id="47" depart="47.00" from="991888360" to="1341695142#2"/>
    <trip id="48" depart="48.00" from="742086817#3" to="639137245#0"/>
    <trip id="49" depart="49.00" from="-1120449102" to="307639069"/>
    <trip id="50" depart="50.00" from="199928906" to="1368908757#12"/>
    <trip id="51" depart="51.00" from="-547191836#4" to="201224251#1"/>
    <trip id="52" depart="52.00" from="-152185277#4" to="1194854709"/>
    <trip id="53" depart="53.00" from="1074019083" to="738174668#3"/>
    <trip id="54" depart="54.00" from="641263784" to="-637572227#1"/>
    <trip id="55" depart="55.00" from="1198570049" to="-202232622"/>
    <trip id="56" depart="56.00" from="653015519#4" to="641524016#0"/>
    <trip id="57" depart="57.00" from="-637540902#4" to="201224246"/>
    <trip id="58" depart="58.00" from="1359520987" to="-200384679"/>
    <trip id="59" depart="59.00" from="287202921#0" to="1376004179#3"/>
    <trip id="60" depart="60.00" from="312908111#8" to="1343882725#0"/>
    <trip id="61" depart="61.00" from="-1010904382" to="-653020614#0"/>
    <trip id="62" depart="62.00" from="-1164060588#1" to="727982482#1"/>
    <trip id="63" depart="63.00" from="641273937" to="637906077"/>
    <trip id="64" depart="64.00" from="-637591983#4" to="-131832386"/>
    <trip id="65" depart="65.00" from="641263787" to="732535870#0"/>
    <trip id="66" depart="66.00" from="-1343882725#4" to="131387910#5"/>
    <trip id="67" depart="67.00" from="-131832423#4" to="445907054"/>
    <trip id="68" depart="68.00" from="307636931#0" to="-152185311#1"/>
    <trip id="69" depart="69.00" from="1131357062" to="137923696"/>
    <trip id="70" depart="70.00" from="-547191833" to="641531144"/>
    <trip id="71" depart="71.00" from="-738155245" to="-307636925#2"/>
    <trip id="72" depart="72.00" from="131387910#1" to="329610977#1"/>
    <trip id="73" depart="73.00" from="-238824157" to="-653015463"/>
    <trip id="74" depart="74.00" from="985838856" to="201730855#3"/>
    <trip id="75" depart="75.00" from="-930920945" to="132203766#1"/>
    <trip id="76" depart="76.00" from="-176437045#5" to="-307639091#0"/>
    <trip id="77" depart="77.00" from="-639113361#1" to="176436950"/>
    <trip id="78" depart="78.00" from="-307639063" to="-307639061"/>
    <trip id="79" depart="79.00" from="-131832432" to="200552314#0"/>
    <trip id="80" depart="80.00" from="-307639058" to="653024334#2"/>
    <trip id="81" depart="81.00" from="638295672#2" to="-132203733#2"/>
    <trip id="82" depart="82.00" from="-330638300#0" to="202232650#1"/>
    <trip id="83" depart="83.00" from="-240241633" to="-176435806#6"/>
    <trip id="84" depart="84.00" from="665724892" to="1512986404"/>
    <trip id="85" depart="85.00" from="1124073979#13" to="548821236"/>
    <trip id="86" depart="86.00" from="367369440#4" to="-237506649#2"/>
    <trip id="87" depart="87.00" from="-137923692" to="1194829631"/>
    <trip id="88" depart="88.00" from="-738174659" to="1272559927"/>
    <trip id="89" depart="89.00" from="202232633#0" to="237353467"/>
    <trip id="90" depart="90.00" from="826239119#0" to="-1341695140#4"/>
    <trip id="91" depart="91.00" from="-658335448" to="-653029570"/>
    <trip id="92" depart="92.00" from="639089040" to="-547191840#0"/>
    <trip id="93" depart="93.00" from="-237666100#2" to="1201906606#0-AddedOnRampEdge"/>
    <trip id="94" depart="94.00" from="-738127675" to="-638282714#0"/>
    <trip id="95" depart="95.00" from="-367369440#3" to="656635578"/>
    <trip id="96" depart="96.00" from="-995553583" to="639137252"/>
    <trip id="97" depart="97.00" from="131832354#11" to="-131832362#1"/>
    <trip id="98" depart="98.00" from="997453244#2" to="637965741"/>
    <trip id="99" depart="99.00" from="739478994" to="718854816#8"/>
    <trip id="100" depart="100.00" from="637897458#0" to="-201717303"/>
    <trip id="101" depart="101.00" from="1189067059" to="-307636935#0"/>
    <trip id="102" depart="102.00" from="-653029568#1" to="-131832388#7"/>
    <trip id="103" depart="103.00" from="-653015510" to="828536839#1"/>
    <trip id="104" depart="104.00" from="-547191833" to="548821233#0"/>
    <trip id="105" depart="105.00" from="1080804002#2" to="1181741429#0"/>
    <trip id="106" depart="106.00" from="730654777" to="988565286"/>
    <trip id="107" depart="107.00" from="131832368" to="307639059"/>
    <trip id="108" depart="108.00" from="-201224239" to="-653015408"/>
    <trip id="109" depart="109.00" from="739477962" to="152185327#5"/>
    <trip id="110" depart="110.00" from="131387914" to="330925518#0"/>
    <trip id="111" depart="111.00" from="-131832356#2" to="176435520"/>
    <trip id="112" depart="112.00" from="1198895195#5" to="639118099#0"/>
    <trip id="113" depart="113.00" from="-201224246" to="742086816"/>
    <trip id="114" depart="114.00" from="-133585195#8" to="-202232653#1"/>
    <trip id="115" depart="115.00" from="132204201#1" to="237666100#0"/>
    <trip id="116" depart="116.00" from="-307639086#1" to="-1493294494"/>
    <trip id="117" depart="117.00" from="653015429" to="-547191830"/>
    <trip id="118" depart="118.00" from="132204201#0" to="200384688"/>
    <trip id="119" depart="119.00" from="-731246181#2" to="176435519"/>
    <trip id="120" depart="120.00" from="1272559928" to="730431830#2"/>
    <trip id="121" depart="121.00" from="-238849474#4" to="307638693#3"/>
    <trip id="122" depart="122.00" from="-330746558#1" to="1098773072"/>
    <trip id="123" depart="123.00" from="176438886#0" to="-653015426"/>
    <trip id="124" depart="124.00" from="-637897458#0" to="331804705#3"/>
    <trip id="125" depart="125.00" from="-132203736#11" to="1251036193"/>
    <trip id="126" depart="126.00" from="997399149" to="991888359"/>
    <trip id="127" depart="127.00" from="-132203736#7" to="-307636931#0"/>
    <trip id="128" depart="128.00" from="-547191833" to="730431819"/>
    <trip id="129" depart="129.00" from="641587764#3" to="653015421"/>
    <trip id="130" depart="130.00" from="-653015466" to="-200550072"/>
    <trip id="131" depart="131.00" from="637561231" to="240637108"/>
    <trip id="132" depart="132.00" from="1365598451" to="859463315"/>
    <trip id="133" depart="133.00" from="152185309" to="-1119276189#2"/>
    <trip id="134" depart="134.00" from="547191835#0" to="-653015425"/>
    <trip id="135" depart="135.00" from="176436950" to="730431869"/>
    <trip id="136" depart="136.00" from="-200384660#1" to="-1420094295"/>
    <trip id="137" depart="137.00" from="-1512986404" to="1379648603"/>
    <trip id="138" depart="138.00" from="-547191853#1" to="199928879#3"/>
    <trip id="139" depart="139.00" from="201730855#1" to="-238849480"/>
    <trip id="140" depart="140.00" from="1450462383" to="-637583270"/>
    <trip id="141" depart="141.00" from="1193237157#1" to="653024334#2"/>
    <trip id="142" depart="142.00" from="637845824#4" to="-133585196"/>
    <trip id="143" depart="143.00" from="-738174659" to="-638238240"/>
    <trip id="144" depart="144.00" from="-1011980674" to="547191833"/>
    <trip id="145" depart="145.00" from="148072669#0" to="-637563262"/>
    <trip id="146" depart="146.00" from="238059478#0" to="1379623427#2-AddedOnRampEdge"/>
    <trip id="147" depart="147.00" from="-739477960#4" to="-1123235225"/>
    <trip id="148" depart="148.00" from="-132203763" to="653015435#4"/>
    <trip id="149" depart="149.00" from="653015474#4" to="137920971#0"/>
    <trip id="150" depart="150.00" from="637563261" to="176435229#1-AddedOnRampEdge"/>
    <trip id="151" depart="151.00" from="-200552298#1" to="-152185305#0"/>
    <trip id="152" depart="152.00" from="-637592731" to="653015510"/>
    <trip id="153" depart="153.00" from="330787168#2" to="639137245#0"/>
    <trip id="154" depart="154.00" from="653015446#1" to="-287202922#0"/>
    <trip id="155" depart="155.00" from="-367369440#0" to="-1376004179#2"/>
    <trip id="156" depart="156.00" from="312911124#8-AddedOnRampEdge" to="653015446#1"/>
    <trip id="157" depart="157.00" from="-730431816" to="200384694"/>
    <trip id="158" depart="158.00" from="-201224238#3" to="727982482#2"/>
    <trip id="159" depart="159.00" from="401893095" to="653015434#10"/>
    <trip id="160" depart="160.00" from="-1198603190#3" to="330766462#1"/>
    <trip id="161" depart="161.00" from="-638282712" to="727982482#9"/>
    <trip id="162" depart="162.00" from="331028254#3" to="639382855#1"/>
    <trip id="163" depart="163.00" from="401893095" to="-637591983#3"/>
    <trip id="164" depart="164.00" from="330747566" to="-137920993"/>
    <trip id="165" depart="165.00" from="639397356" to="639130499"/>
    <trip id="166" depart="166.00" from="-287203423" to="637591983#2"/>
    <trip id="167" depart="167.00" from="1109615148" to="-653015437#0"/>
    <trip id="168" depart="168.00" from="330783649" to="-330646427"/>
    <trip id="169" depart="169.00" from="-1194833758#2" to="-238821786"/>
    <trip id="170" depart="170.00" from="-638197510" to="639382855#1"/>
    <trip id="171" depart="171.00" from="739471292#1" to="-638295667"/>
    <trip id="172" depart="172.00" from="148208497#0" to="1118552377"/>
    <trip id="173" depart="173.00" from="822319090" to="1368618033"/>
    <trip id="174" depart="174.00" from="727982472#2-AddedOnRampEdge" to="-1420094295"/>
    <trip id="175" depart="175.00" from="742086813#2" to="-202232622"/>
    <trip id="176" depart="176.00" from="738155244#0" to="-637583272#1"/>
    <trip id="177" depart="177.00" from="-152185208#3" to="1194854709"/>
    <trip id="178" depart="178.00" from="202232626#0" to="-653015474#8"/>
    <trip id="179" depart="179.00" from="1343715208" to="131832432"/>
    <trip id="180" depart="180.00" from="-653024334#2" to="152185296"/>
    <trip id="181" depart="181.00" from="-425427575#1" to="286363225#1"/>
    <trip id="182" depart="182.00" from="-1011708730#1" to="718854816#0"/>
    <trip id="183" depart="183.00" from="131387907#9" to="307639063"/>
    <trip id="184" depart="184.00" from="238817531" to="202234473#0"/>
    <trip id="185" depart="185.00" from="-653015438#2" to="-132203732"/>
    <trip id="186" depart="186.00" from="176436959#0" to="-653029471"/>
    <trip id="187" depart="187.00" from="-637845885" to="639066930#1"/>
    <trip id="188" depart="188.00" from="202232569" to="-653015429"/>
    <trip id="189" depart="189.00" from="-637823098#1" to="1122492317"/>
    <trip id="190" depart="190.00" from="-656635580#3" to="-653015405#3"/>
    <trip id="191" depart="191.00" from="-200130354#2" to="1154399555#0"/>
    <trip id="192" depart="192.00" from="727982478#2" to="238059479"/>
    <trip id="193" depart="193.00" from="653015468" to="200384668#0"/>
    <trip id="194" depart="194.00" from="-637568932#2" to="137921011#0"/>
    <trip id="195" depart="195.00" from="-1010904382" to="-641263783"/>
    <trip id="196" depart="196.00" from="-759490453#0" to="176131539"/>
    <trip id="197" depart="197.00" from="152185311#0" to="1258664992"/>
    <trip id="198" depart="198.00" from="-985776910" to="-307636935#0"/>
    <trip id="199" depart="199.00" from="1124073979#5" to="653020589"/>
    <trip id="200" depart="200.00" from="330787168#1" to="-201730855#2"/>
    <trip id="201" depart="201.00" from="-1341695141#1" to="132203736#9"/>
    <trip id="202" depart="202.00" from="1431103616" to="-653029512#0"/>
    <trip id="203" depart="203.00" from="547191838" to="331654964"/>
    <trip id="204" depart="204.00" from="176466281#0" to="-307639091#0"/>
    <trip id="205" depart="205.00" from="-238823802" to="-1251038717#1"/>
    <trip id="206" depart="206.00" from="-330879825#2" to="1304578575"/>
    <trip id="207" depart="207.00" from="637921506" to="-132203736#8"/>
    <trip id="208" depart="208.00" from="-730464378" to="200552307"/>
    <trip id="209" depart="209.00" from="-238822628#3" to="238920715"/>
    <trip id="210" depart="210.00" from="1194854701" to="-445909253"/>
    <trip id="211" depart="211.00" from="152185322#0" to="-1103670864#0"/>
    <trip id="212" depart="212.00" from="238849471" to="547191829#1"/>
    <trip id="213" depart="213.00" from="-149548130" to="1184139913"/>
    <trip id="214" depart="214.00" from="-202232624#0" to="739477960#4"/>
    <trip id="215" depart="215.00" from="1251038697#1-AddedOnRampEdge" to="-131832362#1"/>
    <trip id="216" depart="216.00" from="-366762316#1" to="639113351#0"/>
    <trip id="217" depart="217.00" from="1081423622" to="637516126"/>
    <trip id="218" depart="218.00" from="176437737" to="930895009#0"/>
    <trip id="219" depart="219.00" from="653015431" to="200384657"/>
    <trip id="220" depart="220.00" from="202232569" to="131832399"/>
    <trip id="221" depart="221.00" from="637497111" to="137921005"/>
    <trip id="222" depart="222.00" from="653015443" to="330788580"/>
    <trip id="223" depart="223.00" from="1131357037#0" to="-637221281#8"/>
    <trip id="224" depart="224.00" from="-331651077#1" to="201224241#1"/>
    <trip id="225" depart="225.00" from="307636931#0" to="132204222#1"/>
    <trip id="226" depart="226.00" from="1379648599" to="-638227806"/>
    <trip id="227" depart="227.00" from="-132203773#0" to="-641263781"/>
    <trip id="228" depart="228.00" from="-547191851#1" to="-653015506#1"/>
    <trip id="229" depart="229.00" from="131387910#8" to="-176438023#2"/>
    <trip id="230" depart="230.00" from="-307639068" to="238849643"/>
    <trip id="231" depart="231.00" from="201077268#0" to="-131832422"/>
    <trip id="232" depart="232.00" from="-730431824" to="137920952#1"/>
    <trip id="233" depart="233.00" from="-730654757#1" to="-239321463#2"/>
    <trip id="234" depart="234.00" from="-738087574#3" to="653020626"/>
    <trip id="235" depart="235.00" from="132203754" to="238920705#5"/>
    <trip id="236" depart="236.00" from="638238240" to="445913339"/>
    <trip id="237" depart="237.00" from="-653015519#7" to="-1108534645#1"/>
    <trip id="238" depart="238.00" from="-641531136" to="366762316#1"/>
    <trip id="239" depart="239.00" from="638204246" to="738174668#0"/>
    <trip id="240" depart="240.00" from="-731246181#2" to="330879825#2"/>
    <trip id="241" depart="241.00" from="131387936" to="199472731"/>
    <trip id="242" depart="242.00" from="-286526508#0" to="-307638694#1"/>
    <trip id="243" depart="243.00" from="-829801507" to="-130525272#4"/>
    <trip id="244" depart="244.00" from="-639113355#1" to="238821958#1"/>
    <trip id="245" depart="245.00" from="-718854816#3" to="-201224252#0"/>
    <trip id="246" depart="246.00" from="1120240446#6" to="-152185309"/>
    <trip id="247" depart="247.00" from="137921002#0" to="-1295988863"/>
    <trip id="248" depart="248.00" from="-653029523" to="148161272#1-AddedOnRampEdge"/>
    <trip id="249" depart="249.00" from="-1212468835" to="201369074#0"/>
    <trip id="250" depart="250.00" from="-200384665" to="1255171070#0"/>
    <trip id="251" depart="251.00" from="-131387927" to="-998672542"/>
    <trip id="252" depart="252.00" from="273203427" to="-998672542"/>
    <trip id="253" depart="253.00" from="238849476" to="637921502"/>
    <trip id="254" depart="254.00" from="-401893092" to="-132203760#0"/>
    <trip id="255" depart="255.00" from="-1154448685#1" to="1376004180"/>
    <trip id="256" depart="256.00" from="998326737" to="-730431830#1"/>
    <trip id="257" depart="257.00" from="152185271#0" to="547191868"/>
    <trip id="258" depart="258.00" from="152185277#5" to="367369440#2"/>
    <trip id="259" depart="259.00" from="730431844" to="-238824156"/>
    <trip id="260" depart="260.00" from="-1181736602#2" to="-200384674"/>
    <trip id="261" depart="261.00" from="-199928874" to="202232653#1"/>
    <trip id="262" depart="262.00" from="131832399" to="-307638691#1"/>
    <trip id="263" depart="263.00" from="200552283#0" to="461258520"/>
    <trip id="264" depart="264.00" from="-201730863#1" to="200130365#2"/>
    <trip id="265" depart="265.00" from="238823797" to="-1417081851#2"/>
    <trip id="266" depart="266.00" from="547191840#1" to="758068554"/>
    <trip id="267" depart="267.00" from="-152185208#1" to="-1275506148#1"/>
    <trip id="268" depart="268.00" from="-637832901" to="238059479"/>
    <trip id="269" depart="269.00" from="731237496#1" to="1108534645#2"/>
    <trip id="270" depart="270.00" from="201730773#0" to="-132203745"/>
    <trip id="271" depart="271.00" from="200384651" to="200552285#4"/>
    <trip id="272" depart="272.00" from="-1417081847#1" to="547191836#4"/>
    <trip id="273" depart="273.00" from="637965740" to="176505748"/>
    <trip id="274" depart="274.00" from="-176437045#5" to="826628122"/>
    <trip id="275" depart="275.00" from="330351793#1" to="-730431823"/>
    <trip id="276" depart="276.00" from="-739483003" to="-821964475#1"/>
    <trip id="277" depart="277.00" from="1201244510#2" to="-653035241#1"/>
    <trip id="278" depart="278.00" from="-1482414637#0" to="742086816"/>
    <trip id="279" depart="279.00" from="1457053227" to="637897473#1"/>
    <trip id="280" depart="280.00" from="201077268#6" to="1196008892#0"/>
    <trip id="281" depart="281.00" from="202232650#0" to="759490453#2"/>
    <trip id="282" depart="282.00" from="-547191848#3" to="637568932#0"/>
    <trip id="283" depart="283.00" from="131387907#6" to="131387906"/>
    <trip id="284" depart="284.00" from="-828212843" to="330351794"/>
    <trip id="285" depart="285.00" from="-547191843" to="639115040"/>
    <trip id="286" depart="286.00" from="637500988" to="-132203770#0"/>
    <trip id="287" depart="287.00" from="653015386" to="-445909253"/>
    <trip id="288" depart="288.00" from="1120110645#1" to="200132712"/>
    <trip id="289" depart="289.00" from="-653015510" to="-130525272#4"/>
    <trip id="290" depart="290.00" from="637969525" to="-202232641#0"/>
    <trip id="291" depart="291.00" from="-239756640#1" to="637465706"/>
    <trip id="292" depart="292.00" from="-639118114" to="653015427"/>
    <trip id="293" depart="293.00" from="200552288#0" to="-638238239"/>
    <trip id="294" depart="294.00" from="-1119276163#1" to="738087568"/>
    <trip id="295" depart="295.00" from="-1343882725#4" to="307639066"/>
    <trip id="296" depart="296.00" from="1193237157#1" to="415123774#6"/>
    <trip id="297" depart="297.00" from="200384651" to="201717300#0"/>
    <trip id="298" depart="298.00" from="1194201666#3" to="637221285"/>
    <trip id="299" depart="299.00" from="-137920968#10" to="-307639072"/>
    <trip id="300" depart="300.00" from="200384668#0" to="-653015441"/>
    <trip id="301" depart="301.00" from="132203748#2" to="1298948773#15"/>
    <trip id="302" depart="302.00" from="130525272#0" to="1184187530#1"/>
    <trip id="303" depart="303.00" from="238822430" to="-653029478#3"/>
    <trip id="304" depart="304.00" from="200552294#0" to="-637884000"/>
    <trip id="305" depart="305.00" from="-401893087#3" to="-1503479244"/>
    <trip id="306" depart="306.00" from="-238821957#1" to="-1492820187"/>
    <trip id="307" depart="307.00" from="131387903#3" to="445910810#4"/>
    <trip id="308" depart="308.00" from="-202232653#0" to="-307638685"/>
    <trip id="309" depart="309.00" from="1185027369" to="307639091#1"/>
    <trip id="310" depart="310.00" from="819558570" to="133585205#2"/>
    <trip id="311" depart="311.00" from="-637190758#1" to="-1359520985#1"/>
    <trip id="312" depart="312.00" from="-238822628#2" to="-330646427"/>
    <trip id="313" depart="313.00" from="-202232634" to="-1164060588#1"/>
    <trip id="314" depart="314.00" from="131387899#0" to="-638227806"/>
    <trip id="315" depart="315.00" from="759490452" to="1379648604"/>
    <trip id="316" depart="316.00" from="200550063#6" to="-152185277#8"/>
    <trip id="317" depart="317.00" from="639137267#1" to="131387933#2"/>
    <trip id="318" depart="318.00" from="639451612" to="152185234#1"/>
    <trip id="319" depart="319.00" from="1123045319" to="1198603185#1"/>
    <trip id="320" depart="320.00" from="-202232650#1" to="-131832363#2"/>
    <trip id="321" depart="321.00" from="727982482#10" to="131387893#0"/>
    <trip id="322" depart="322.00" from="547191851#0" to="1118552421"/>
    <trip id="323" depart="323.00" from="-132203752" to="200552300#0"/>
    <trip id="324" depart="324.00" from="-131390664" to="-200384651"/>
    <trip id="325" depart="325.00" from="131832395#0" to="-653015434#5"/>
    <trip id="326" depart="326.00" from="985776911" to="-1474592023"/>
    <trip id="327" depart="327.00" from="307636925#2" to="200130363"/>
    <trip id="328" depart="328.00" from="330775047#0" to="-315367097#0"/>
    <trip id="329" depart="329.00" from="1272559926" to="1212468835"/>
    <trip id="330" depart="330.00" from="-995149854" to="639137239"/>
    <trip id="331" depart="331.00" from="828579865" to="-653015438#0"/>
    <trip id="332" depart="332.00" from="137920994" to="200132709"/>
    <trip id="333" depart="333.00" from="237803499" to="732535870#6-AddedOffRampEdge"/>
    <trip id="334" depart="334.00" from="-238852615#1" to="-307636924"/>
    <trip id="335" depart="335.00" from="176435806#0" to="-200550068#1"/>
    <trip id="336" depart="336.00" from="-202232597" to="-132203743"/>
    <trip id="337" depart="337.00" from="-1011953455" to="1212468835"/>
    <trip id="338" depart="338.00" from="132203778" to="-641587771#0"/>
    <trip id="339" depart="339.00" from="200552294#1" to="1234531325#4"/>
    <trip id="340" depart="340.00" from="200132716" to="656635580#2"/>
    <trip id="341" depart="341.00" from="330751549" to="200550063#0"/>
    <trip id="342" depart="342.00" from="176435806#6" to="730431824"/>
    <trip id="343" depart="343.00" from="-738483086" to="137920968#9"/>
    <trip id="344" depart="344.00" from="152185208#0" to="653029480#4"/>
    <trip id="345" depart="345.00" from="602993946" to="-132203735#0"/>
    <trip id="346" depart="346.00" from="-201730855#4" to="-653015444"/>
    <trip id="347" depart="347.00" from="238823835#0" to="1493294498"/>
    <trip id="348" depart="348.00" from="-637228961#1" to="-152185271#0"/>
    <trip id="349" depart="349.00" from="729114850" to="131832367"/>
    <trip id="350" depart="350.00" from="1194854700#0" to="-132203755#0"/>
    <trip id="351" depart="351.00" from="-131387898#3" to="1194833758#0"/>
    <trip id="352" depart="352.00" from="-637929296" to="-547191844#0"/>
    <trip id="353" depart="353.00" from="-137920952#1" to="750980734"/>
    <trip id="354" depart="354.00" from="637563264#0" to="152185277#2"/>
    <trip id="355" depart="355.00" from="730431845#7" to="998401478"/>
    <trip id="356" depart="356.00" from="176466266#0" to="-637829974#3"/>
    <trip id="357" depart="357.00" from="-131387898#4" to="401893092"/>
    <trip id="358" depart="358.00" from="1124022200#2" to="201730862#1"/>
    <trip id="359" depart="359.00" from="653020622" to="-202232637#0"/>
    <trip id="360" depart="360.00" from="132203756" to="201224236#1"/>
    <trip id="361" depart="361.00" from="1194201671#2" to="-133585195#10"/>
    <trip id="362" depart="362.00" from="-639382855#1" to="-653029498"/>
    <trip id="363" depart="363.00" from="176438023#7" to="639130492#1"/>
    <trip id="364" depart="364.00" from="-638199799#2" to="238849643"/>
    <trip id="365" depart="365.00" from="-637221285" to="731237496#1"/>
    <trip id="366" depart="366.00" from="445909253" to="137923696"/>
    <trip id="367" depart="367.00" from="1080804002#1" to="-653015479"/>
    <trip id="368" depart="368.00" from="-637929309" to="819990001"/>
    <trip id="369" depart="369.00" from="-718854816#11" to="132203736#11"/>
    <trip id="370" depart="370.00" from="826631321" to="202232594#0"/>
    <trip id="371" depart="371.00" from="131387915" to="1124073979#10"/>
    <trip id="372" depart="372.00" from="-235851217#2" to="-738155244#0"/>
    <trip id="373" depart="373.00" from="238920711#3" to="200550065"/>
    <trip id="374" depart="374.00" from="240645485" to="-238849480"/>
    <trip id="375" depart="375.00" from="131832349" to="727982474"/>
    <trip id="376" depart="376.00" from="-176437150#1" to="822355101"/>
    <trip id="377" depart="377.00" from="1359520985#1" to="-367369544"/>
    <trip id="378" depart="378.00" from="-201224250#2" to="137923697#4"/>
    <trip id="379" depart="379.00" from="131832358#6" to="-133585202#2"/>
    <trip id="380" depart="380.00" from="93418855#1-AddedOnRampEdge" to="653029501"/>
    <trip id="381" depart="381.00" from="1115889344" to="-1457053227"/>
    <trip id="382" depart="382.00" from="637540663" to="131832358#6"/>
    <trip id="383" depart="383.00" from="201730847" to="131832423#1"/>
    <trip id="384" depart="384.00" from="-547191865#2" to="637956498#1"/>
    <trip id="385" depart="385.00" from="821964475#0" to="-445907129#0"/>
    <trip id="386" depart="386.00" from="131832355#4" to="1011708730#1"/>
    <trip id="387" depart="387.00" from="653029480#1" to="131832420#0"/>
    <trip id="388" depart="388.00" from="641291812" to="639382855#1"/>
    <trip id="389" depart="389.00" from="-547191869" to="637199922"/>
    <trip id="390" depart="390.00" from="-730464379#1" to="730431830#0"/>
    <trip id="391" depart="391.00" from="1201906606#0-AddedOnRampEdge" to="637829974#5"/>
    <trip id="392" depart="392.00" from="-637190756" to="-653015424"/>
    <trip id="393" depart="393.00" from="132203762" to="998388885"/>
    <trip id="394" depart="394.00" from="1193446790#0" to="-200384648#0"/>
    <trip id="395" depart="395.00" from="131387908" to="-718854816#9"/>
    <trip id="396" depart="396.00" from="131832358#4" to="137920955#2"/>
    <trip id="397" depart="397.00" from="1080804005" to="-653015519#6"/>
    <trip id="398" depart="398.00" from="-237506649#2" to="239702444"/>
    <trip id="399" depart="399.00" from="131832430#0" to="-330878633#0"/>
    <trip id="400" depart="400.00" from="307639086#0" to="-131387938#2"/>
    <trip id="401" depart="401.00" from="238821958#1" to="240645483#0"/>
    <trip id="402" depart="402.00" from="415123774#6" to="1012081307"/>
    <trip id="403" depart="403.00" from="176436957#0" to="637829974#7"/>
    <trip id="404" depart="404.00" from="821993084#0" to="131832354#11"/>
    <trip id="405" depart="405.00" from="-1304578575" to="131832388#4"/>
    <trip id="406" depart="406.00" from="132203769#1" to="641313241"/>
    <trip id="407" depart="407.00" from="641263781" to="1198603185#0"/>