<?xml version='1.0' encoding='UTF-8'?>
<routes xmlns:xsi="http://www.w3.org/2001/XMLSchema-instance" xsi:noNamespaceSchemaLocation="http://sumo.dlr.de/xsd/routes_file.xsd">
    <!-- Demand equalized to Jakarta: kept the first 175 vehicles by depart time (depart 0 to 174 s) to match Jakarta's 175-vehicle front loaded burst. Network rebuilt with non-vehicular roads stripped (netconvert keep-edges.by-vclass=passenger, keep-edges.components=1); full 1800-vehicle set in precalculated_routes.full.rou.xml. -->
    <vehicle id="0" depart="0.00">
        <route edges="358189132#3 35855767 183755697#0 183755697#2 183755697#3 183755697#5 183755697#6 183755697#7 183755697#8 183755697#10 183755697#11 183755697#12 183755697#13 35846723#0 35846723#3 35846723#4 35846723#5 35846723#9 357794342#0 357794342#3 357794342#11 294891020 357424601#0 35833467 190816343#0 35833458 35836987#0 35836987#3 61338753#0 550682304 61338752#0 61338752#4 61338752#5 359277423 359277424 35801162#0 35801162#1 36068299#0 36068301#0 256721126 568949371 143314725#0 1185728253 -1185728253" />
    </vehicle>
    <vehicle id="1" depart="1.00">
        <route edges="1094556230 1094556239 35787174#0 98876202#0 845388568 358303739#4 358303739#8 358303739#9 358303739#13 358303750 357759084#0 357759085#0 357759085#1 4059989#0 556709831 357759083 -75729902#7" />
    </vehicle>
    <vehicle id="2" depart="2.00">
        <route edges="36054963#3 36054949#1 566414214#0 759580340#0 357165696#0 -36006170#1 -834743820 36005941 1196399869#0 1196399869#2 1133075248 35777660#1 1133075251#1 233200072 35769963#0 35769963#2 35769963#3 357447395 35860181#0 629232661#0 368289747#6 931968440 931968437#0 931968434#0 1205421083 931968432#0 931968432#2 1348707507 75503612 -665676423 -627468528#2 -571682578 75503608#0 257072921#0 61494208#0 166301879 190794130 357476509 190794128 836662623 556769983 -835771553 -35901833#1 838607006 627718562#0 1280111588 832977696 832977699#0 832977694 497255613#0 35777852 149953111 760004443 190796497#0 1188462842 -277000197#1 149953122 35903681#0" />
    </vehicle>
    <vehicle id="3" depart="3.00">
        <route edges="760004442 373181162 372823137#0 372823137#1 77765949#0 833462419#1 191454910 -1185737185 -1185737186 -1185737187 -1181227216#2 -1181227216#0 -1181227611 -1181227495#1 -35777894#2 98847255#0 98847255#1 98847255#2 98847255#4 98847255#5 35836698#0 35836698#3 35836698#4 890126841#0 344497098 344497097#0 344497097#1 1182395575 36071446 140993942#0 539610996#0 195493140#0 195493140#2 195493140#4 195493140#7 348595593#0 348595593#3 348595593#4 45409802#0 45409802#3 45409802#4 357794349 343645457#0 191454906 534873059 359280384 45409807#0 1181951484 344461896#0 184128394 -1050575798#2 -1101892481 -1191759577 -98841100#2 -98841100#0 191454921#0 191454921#2 344461929 -191454912#5 -191454912#2 -344461927#2 -344461927#1 -191454924 -184128357 -344461923#3 -344461923#2 184128403#0 184128403#1 -184128403#1" />
    </vehicle>
    <vehicle id="4" depart="4.00">
        <route edges="146273146#5 146273146#6 112581493#0 469939362#0 358306371#7 358306371#9 112581501 358306380#0 358306379 -358306382#1 -358306382#0 112581474#0 358306381 112581491#0 112581491#1 112581491#2 -1186610208 -1186610207 -1186610581#1 -1186610580 -1186610582 -358306376#3 -358306376#0 -358306374 -357786298#2 -357786298#0 183818556#0 183818556#1 839674770#0 190778991#0 30098105#0 205500751 35842036#0 358086111#0 205500762 205500761#0 205500758#0 205500758#3 205500759#0 205500765#0 98841092#0 98841102#0 1181951484 344461896#0 184128394 -1050575798#2 -1101892481 -1191759577 -98841100#2 -98841100#0 191454921#0 1188608745#0 -1188608745#0" />
    </vehicle>
    <vehicle id="5" depart="5.00">
        <route edges="-557404605#1 35836890#2 35836896#0 359162229#0 359162229#1 35836963#0 35836963#2 1071267613#0 359162238#0 359162238#1 -357759072#5 -35842041#3 357759055 359277410 140695163#0 140695163#3 140695163#5 140695163#6 357759080 359277419 359277418#0 205500761#0 205500758#0 205500758#3 35833578 1188468648#0 1188468648#1 490605419 490605420 35833582#0 1188604310 1188604309#0 1188604309#2 35801162#0 35801162#1 36068299#0 36068301#0 256721126 568949371 143314725#0 1185728253 1185725327 1185728252#0 1185725326 1185728251 1185725340#0 195493140#0 195493140#2 195493140#4 195493140#7 98837661#0 98837661#2 1191746785 343659445 1191746780#0 1191747208 1191747275#0 1191747275#1 344499613 1191748006 1494467056 357794352#0 357794352#1 1493003493 1450812433#0 1450812433#1 1191748113 195495863#0 256589578#0 256589578#3" />
    </vehicle>
    <vehicle id="6" depart="6.00">
        <route edges="-1182192189 1182192190 471847084 112582361#0 358306375#8 358306375#9 358306375#11 358306375#12 358306375#14 358306375#15 -1186610208 -1186610207 -1186610581#1 -1186610580 -1186610582 -358306376#3 -358306376#0 -358306374 -357786298#2 -357786298#0 183818556#0 183818556#1 839674770#0 190778991#0 359280350 1429049239 843067224#0 183755804#0 183755804#2 183755804#4 1188612463#0 843054327 843049844 183743585#0 183743580#6 183743580#1 183743584#0 183743584#2 183743584#3 -1196094082#1 -357427567 -1196094081 -1202785096 -1188811611 -183743572 35842058 358189143 190792402 190792404 183755707 -294891022#8 -294891022#5 -294891022#3 -294891022#1 -294891022#0 35923383#0 358189138 36226732#0 36226732#1 36226732#3 315765582 35773179 1242225920 35842663#0 35842663#1 358195685#0 358195685#2 36202263#0 36202263#1 36202263#3 36202263#7 358055207 35777672#1 804570174 1189325417 -1159213775#1 35769954#0 35834963#0 35769215 489805564 1221006687#1 1221006687#2 35770138#0 35770138#1 35858962 665655887#0 490751089 -490751089" />
    </vehicle>
    <vehicle id="7" depart="7.00">
        <route edges="35833591#0 359277422#0 359277422#1 359277421 35833578 1188468648#0 1188468648#1 490605419 490605420 35833582#0 1188604310 1188604309#0 1188604309#2 35801162#0 35801162#1 36068299#0 36068301#0 256721126 568949371 143314725#0 1185728253 1185725327 1185728252#0 1185725326 1185728251 1185725340#0 35801145#0 1185725461 1185725462 359280329 1185726301 1185726300 1185726517 1185726518 1185726787 1185726788 1185727256 1185727439 1185727438 1185727437#0 1185727437#1 1185727714 1185727712 1185727713 1185727715 1185727716 1185727976 1185727975#0 1185728055#0 -343435961#2 98848979 1079050426 343435965 497257268#0 497257268#1 497257268#2 372818270#0 149052771#0 77727771#0 359524760 77727766#0 196873649 569700802 77728113#0 359528057 77727781#0 196873645 77727773#0 77727768 256412914#0 77728103 359524717#0 359345615#0 259218558 -374530220 -359302693 -374530221 -374530224#1 -374530224#0 -359302694 -374530222#1 259218551#0 343432617#0 343432617#1" />
    </vehicle>
    <vehicle id="8" depart="8.00">
        <route edges="-566145813#1 -146273143#1 112581487#0 112581487#2 112581487#4 -358306376#0 -358306374 -357786298#2 -357786298#0 183818556#0 183818556#1 839674770#0 190778991#0 30098105#0 205500751 35842036#0 358086111#0 205500762 205500761#0 205500758#0 205500758#3 205500759#0 205500765#0 205500767#1 205500764 534873049#0 534873049#2 1138276127 86419216 83912775#0 359280317#0 323694379#0 323694379#1 195495862 295113613 -1188432135 596096503#0 348839738#3" />
    </vehicle>
    <vehicle id="9" depart="9.00">
        <route edges="470297708 -35855425#4 -35855425#3 -35855425#2 -35855425#1 35855610#12 35855570#0 843067224#0 1428106416 843054329#0 28821581 357759074#0 839674771 190785480#0 843067226 357786298#0 357786298#1 469774961#0 469774961#2 469774961#3 905622870#0 905622870#1 566145445#0 146273146#0 146273146#4 146273146#5 1340474749 473566395 -112581469 -112581467" />
    </vehicle>
    <vehicle id="10" depart="10.00">
        <route edges="45409837#2 993870463 75299028#0 75299028#1 75299028#6 75299028#8 75299028#9 75299028#10 75299028#11 75299028#13 270023836 358182778#0 358182778#4 358182791#5 190429166#0 190429166#7 1189997694 357759058 357759059#0 372795135 77609174 77611433#0 357759070#0 372008362 372008363#1 372011046 372011045 359510248 372011043 372011044#0 359510246 1190767898 357759038#0 531995517#0 344508344 77727782#0 77727760 77728101 372801901 359345608 77728107 359524711#0" />
    </vehicle>
    <vehicle id="11" depart="11.00">
        <route edges="1188470237 836456678 61338749 35834145 1147926269#0 61338753#0 550682304 61338752#0 61338752#4 61338752#5 359277423 359277424 35801162#0 35801162#1 36068299#0 36068301#0 256721126 568949371 143314725#0 1185728253 1185725327 1185728252#0 1185725326 1185728251 1185725340#0 35801145#0 1185725461 1185725462 359280329 -359280329" />
    </vehicle>
    <vehicle id="12" depart="12.00">
        <route edges="98775368#0 343670535#0 343670535#1 343670535#2 343670535#3 343670535#4 343670535#5 343670535#6 343659440#4 941000770 98779194#0 98779194#1 98779194#2 98779194#4 569027864#0 136123181#0 136123181#1 195493140#4 195493140#7 348595593#0 348595593#3 348595593#4 45409802#0 45409802#3 45409802#4 357794349 343645457#0 191454906 534873059 359280384 45409807#0 1181951484 344461896#0 184128394 -1050575798#2 -1101892481 -1191759577 -98841100#2 -98841100#0 191454921#0 1188608745#0" />
    </vehicle>
    <vehicle id="13" depart="13.00">
        <route edges="-184128412#3 -184128412#2 -184128412#1 -184128412#0 184128354 184128396#0 184128396#2 358182784#0 358182784#1 358182784#3 358182784#4 -184128430#1 -184128430#0 -560977302#1 1050575812 557952144 98841093#5 98841093#7 191454926#0 191454908#0 534873053 534873046 45409800#0 343471466#0 343471467#0 343471467#1 343471467#4 195493141#0 195493141#6 1191746781 1191746783 348595589#0 348595589#1 348595589#2 348595589#4 98865384#0 98865384#2 1050008657 344495219#0 890126842#0 890126842#2 98869991#0 98869991#1 98869991#2 98869991#3 98869991#4 35801295#0 372818264#0 372818264#1 372818263 191454936#0 191454936#1 191454936#3 586298332#0 191454930#0 372818282 191454934#0 1180720953 832977690 453873233#0 833142499#0 843593900 553295965 930763810 614779081#0 614779081#1 34474997#0 34474997#3 34474997#4 34474997#7 770855633#0 -591569082 -621979905 35902785#0 756195260#0 190525285#0 770855632 75503694#0 75503692 1204486323 376509489 228185313#2 -228185315" />
    </vehicle>
    <vehicle id="14" depart="14.00">
        <route edges="567089898 140695247 1188468619#0 -1188468614 -140695184#4 561809306 561809307 -1188468388#3 -1188468388#0 1021443848 1157585104 853188805#0 853188804#0 359277410 140695163#0 140695163#3 140695163#5 140695163#6 357759080 359277419 359277418#0 35834021 359277420#0 359277420#1 27611567#0 27611567#2 357188410#0 1188470235#0 61338748#0 1188470236#0 190509813 35833521 389744948#0 151159340#0 1191741665#0 1191741665#1 1191741665#2 1191741665#3 1191741665#5 61414278#0 190785487#0 488217967 488217963 190785484#0 -958198746#1 35858019 35773117 958196189 358189142#0 151152814#0 1121024714 1428542441 1121024715#0 42431910#0 35773225#0" />
    </vehicle>
    <vehicle id="15" depart="15.00">
        <route edges="469667755 1051883827 1051883828#2 183856282#0 183856208#2 183856208#3 183856208#5 183856209#0 183856209#2 183856209#3 183856209#5 183856209#7 183856209#8 358306375#0 358306375#2 358306375#3 358306375#4 358306375#6 358306375#8 358306375#9 358306375#11 358306375#12 358306375#14 358306375#15 -1186610208 -1186610207 -1186610581#1 -1186610580 -1186610582 -358306376#3 -358306376#0 -358306374 -357786298#2 -357786298#0 183818556#0 183818556#1 839674770#0 190778991#0 359280350 1429049239 843067224#0 183755804#0 183755804#2 183755804#4 1188612463#0 843054327 843049844 183743585#0 183743580#6 183743580#1 183743584#0 183743584#2 183743584#3 256702684#0 495260406#0 1196101856 183743587#0 183743587#2 183743587#4 183743587#5 183743587#6 29077769 -29077770#1 233199631 1322073209 35769871#0 35769871#6 36198924#0" />
    </vehicle>
    <vehicle id="16" depart="16.00">
        <route edges="288400356#0 -358336254#5 112584767#0 112584767#2 183856312#1 183856211 -112584753#7 -112584753#4 -112584753#3 -112584753#1 183856209#3 183856209#5 183856209#7 183856209#8 358306375#0 358306375#2 112587279#0 292203592#18 112587283#0 389744942#0 185036579#2 389744943#0 357759049 389744947#0 35842036#0 358086111#0 205500762 205500761#0 205500758#0 205500758#3 35833578 1188468648#0 1188468648#1 490605419 490605420 35833582#0 1188604310 1188604309#0 1188604309#2 35801162#0 35801162#1 36068299#0 36068301#0 256721126 568949371 143314725#0 1185728253 1185725327 1185728252#0 1185725326 1185728251 1185725340#0 195493140#0 195493140#2 195493140#4 195493140#7 98837661#0 98837661#2 1191746785 343659445 1191746780#0 1191747208 1191747275#0 1191747275#1 -98849683#1 98837660#0" />
    </vehicle>
    <vehicle id="17" depart="17.00">
        <route edges="136123187#1 1185725326 1185728251 1185725340#0 195493140#0 195493140#2 195493140#4 195493140#7 348595593#0 348595593#3 348595593#4 45409802#0 45409802#3 45409802#4 357794349 343645457#0 191454906 534873059 205500764 534873049#0 534873049#2 1138276127 86419216 359280326#0 359280390#2 899492243#0 568975028#0 568975028#1 894363944 76829342#0 343452448" />
    </vehicle>
    <vehicle id="18" depart="18.00">
        <route edges="517975908 1189326139 36058795 35769323 665655887#0 665655887#1 665655887#2 358301693#0 357794351#0 -1189941497#1 1189941497#0 666988933#0 666988937 666988928#0 931968437#0 931968434#0 1205421083 931968432#0 931968432#2 1348707507 75503612 -665676423 -627468528#2 -571682578 75503608#0 257072921#0 61494208#0 166301879 190794130 357476509 190794128 836662623 556769983 -835771553 -35901833#1 838607006 627718562#0 1280111588 832977696 832977699#0 832977694 344508347#0 344508347#2 1266100696 1180720954#0 436981383#0 23161466 77727765#0 439103660 196462927 422207230#0 344508343#0 1190767897#0 357759086#0 357759086#1 27234343#0 27234343#2 1138258014#0 1138258011 1138258013 358089881#0 358089872 358089878#0 358089874" />
    </vehicle>
    <vehicle id="19" depart="19.00">
        <route edges="609025405 295024817 -295024817 -609025405 295024815#1 -1132438704 -255764683 -36202263#7 -36202263#6 -36202263#2 -36202263#0 1062870005 493711339 933351274 493711336 933351272 35842430#0 35842451#0 357734828#0 357734828#1 357734828#3 357734828#4 36226732#0 36226732#1 36226732#3 1147926267#0 1147926266 490175893 36226521 36226822#0 36226821#0 36226821#1 36226821#2 36226821#3 36226821#4 357171246 151151441#0 151151441#1 35842731#0 35842731#1 357171234 284759961 565366953 191983605#0 191983605#1 191983605#2 357428772#0 357428772#1 35842957 -357167018#4 -35801647 -35801645 295024808 831698013#0 344499611#0 344499611#1 35801623#0 565147322#0 35837056#0 195493133#0 195493133#2 140993942#0 539610996#0 195493140#0 195493140#2 195493140#4 195493140#7 348595593#0 348595593#3 348595593#4 45409802#0 45409802#3 45409802#4 357794349 343645457#0 191454906 534873059 359280384 45409807#0 1181951484 344461896#0 191454925#0 191454925#1 1191756922#0 1191756922#1 74486849#6 344461952#2 344461912#0 344461912#3" />
    </vehicle>
    <vehicle id="20" depart="20.00">
        <route edges="35923483#1 35923483#2 -294891022#0 35923383#0 358189138 36226732#0 36226732#1 36226732#3 315765582 35773179 1242225920 35842663#0 35842663#1 358195685#0 358195685#2 36202263#0 36202263#1 36202263#3 36202263#7 358055207 35777672#1 804570174 1189325417 -1159213775#1 35769954#0 35834963#0 35769215 928543800 358301685 357794346#0 357794346#1 -35769963#3 -35769963#2 -35769963#1 233200069 834743821 36005966#0 36005966#2 1196399867 834743820 36006170#0 -36054793 -357447394#2 -357447394#0 36054912 368199634#0 36054855#0 357424606#0 357424606#3 36055030 36056609#0 357424602#0 -1385593121#1 -1385593121#0" />
    </vehicle>
    <vehicle id="21" depart="21.00">
        <route edges="-567896190 -1023912607#1 -1023912607#0 140709658#1 533822569 136123199#0 136123199#1 136123199#2 336723704#0 -140810000#1 35801162#1 359280353 359280356 357759082 359277423 35833591#0 359277422#0 359277422#1 359277407#0 359277408 359162237#1 358086115 35842039#0 359162232 35842041#0 35842042#0 35842043 35842044#0 -112587251#3 1182360788 112560888#0 112560888#1 112587257#11 112587257#12 112587257#14 112587257#15" />
    </vehicle>
    <vehicle id="22" depart="22.00">
        <route edges="-183755704#6 -183755704#2 -183755705 35855719#0 35855719#1 35854545#0 35854545#1 35854545#2 35856364#0 -1188465825#2 -133084364 35853797 357424601#0 35833467 190816343#0 35833458 344499610#0 1191309619 344499615#0 344499615#1 344499615#4 35837052#0 35837047 359277406#0 359277406#3 359277406#5 359277406#7 359277406#9 176405149 190509810 1162445368 234936048 234936047#0 190798146 373181166 531934323 -190796499 585610407#3 -839879316" />
    </vehicle>
    <vehicle id="23" depart="23.00">
        <route edges="-232209242#1 284413241#0 1144537239#1 234785643#0 -1188616455 357759117#1 357759115 32009052#0 31982114#0 35779214 60769702 35779195#1 35779195#2 35779195#3 60769712#0 60769712#3 60769712#6 -1477362715 323694378#0 899492243#0 568975028#0 568975028#1 894363944 76829342#0 76829342#3 86419215 205500749 205500750 359280323#0 534873042#0 536617357#0 536617357#2 534873056#2 359277407#0 359277408 348881791#0 183755702#0 27131330#0 27244535 256551225#0 256551225#2 112587297#1 292203592#3 292203592#4 292203592#5 112587272#0 1186610582 1186610580 1186610581#0 1186610207 1186610208 -358306375#15 -358306375#14 -358306375#13 -358306375#11 -358306375#10 -358306375#8 -358306375#7 -358306375#5 112582357#0 112582357#2" />
    </vehicle>
    <vehicle id="24" depart="24.00">
        <route edges="358055211#0 191457580#0 190525295 23162018#0 23162018#4 23162018#6 23162018#8 776946826 832892265 832892261 436794438#0 832892260 511066469#0 421813784 833143545 358055209 372818281#0 344508351#0 35836647 191454910 -1185737185 -1185737186 -1185737187 -1181227216#2 -1181227216#0 132695031" />
    </vehicle>
    <vehicle id="25" depart="25.00">
        <route edges="1000023161463 1138257992 83373630-AddedOnRampEdge 83373630 30098097 848485270 195821800 196873632#0 1138258013 358089881#0 358089872 358089878#0 358089874 357759086#0 357759086#1 77609168#0 372795150#1 372795147 98697016#0 344515358 372795146#0 372795146#1 77611433#0 357759078#0 357759078#1 357759078#2 372166366#0 372166366#1 372166362#0 372166362#1 372166369 1185659708 359507070#0 -98848983 98749034#0 98847194#0 98847194#2 98847194#3 1191752151#0 -98847193#1 360259908#0 931795434#0 934705777" />
    </vehicle>
    <vehicle id="26" depart="26.00">
        <route edges="358306376#1 -358306376#3 -358306376#0 -358306374 -357786298#2 -357786298#0 183818556#0 183818556#1 839674770#0 190778991#0 30098105#0 205500751 35842036#0 358086111#0 205500762 205500761#0 205500758#0 205500758#3 35833578 1188468648#0 1188468648#1 490605419 490605420 35833582#0 1188604310 1188604309#0 1188604309#2 35801162#0 35801162#1 36068299#0 36068301#0 256721126 568949371 143314725#0 1185728253 1185725327 1185728252#0 1185725326 1185728251 1185725340#0 35801145#0 1185725461 1185725462 359280329 1185726301 1185726300 1185726517 1185726518 1185726787 1185726788 1185727256 1185727439 1185727438 1185727437#0 1185727437#1 1185727714 1185727712 1185727713 1185727715 1185727716 1185727976 1185727975#0 1185728055#0 -343435961#2 98848979 1079050426 343435965 497257268#0 497257268#1 497257268#2 372818270#0 149052771#0 77727771#0 359524760 360495083#0 77728095 77728091 866034244 372180619#0 196462927 422207230#0 344508343#0 1190767897#0 357759086#0" />
    </vehicle>
    <vehicle id="27" depart="27.00">
        <route edges="-36199586#2 -492406131#1 36202263#1 36198166#0 36198270#3 36198270#5 -36198827#0 490407525 36198542#0" />
    </vehicle>
    <vehicle id="28" depart="28.00">
        <route edges="-36068890#2 -1188468831 -1188468832 36068413#0 36068635 61338752#4 61338752#5 359277423 35833591#0 359277422#0 359277422#1 359277421 205500759#0 205500765#0 205500767#1 205500764 534873049#0 534873049#2 1138276127 86419216 359280326#0 359280390#2 139015375#0 139015375#2 139015365#4 139015365#6 139015365#7 139015365#8" />
    </vehicle>
    <vehicle id="29" depart="29.00">
        <route edges="98865112#2 98865112#3 98865112#4 98865112#5 98865110#1 98865110#2 98869991#3 98869991#4 35801295#0 372818264#0 372818264#1 372818263 191454936#0 191454936#1 191454936#3 586298332#0 191454930#0 372818282 191454934#0 1180720953 832977690 453873233#0 833142499#0 843593900 553295965 930763810 614779081#0 614779081#1 34474997#0 34474997#3 34474997#4 34474997#7 770855633#0 -591569082 -621979905 35902785#0 756195260#0 190525285#0 770855632 302279754#0 75503611 929372881#0 571682578 627468528#0 -627468528#2 35835275#0 35835275#3" />
    </vehicle>
    <vehicle id="30" depart="30.00">
        <route edges="343435924 23162026#2 23162026#4 359284804#0 191457583 357190808#0 375043043#0 190524661 23051248 190525295 23162018#0 23162018#4 23162018#6 23162018#8 776946826 358055199#0 585610407#0 585610407#2 585610407#3 -839879316 839879314 23162043 35900161#0 35900161#1 35899968 1190848561 302279747 302279748#0 35903681#0 35903052#0 190816352#0 358195690 35923003#0 35923003#1 35923003#2 35923003#3 35923003#4 35923003#6 35923003#7 357167018#0 357171243 1188491376#0 1188491376#1 989194621#1 989194621#2 35773043#0 35773043#1 357171234 357171238#0 357171238#1 488217961 488217959 190785484#0 358189132#0 358189132#3 -35777690#5 -35777690#3 -35777690#0 35923362#0 35923362#3 35923419#0 35923434#0" />
    </vehicle>
    <vehicle id="31" depart="31.00">
        <route edges="565149705 36071467#0 190509812#0 35836696#0 1202721775#0 1202721775#2 98847255#0 98847255#1 98847255#2 98847255#4 98847255#5 35836698#0 35836698#3 35836698#4 890126841#0 344497098 344497097#0 344497097#1 1182395575 36071446 140993942#0 539610996#0 195493140#0 195493140#2 195493140#4 195493140#7 348595593#0 348595593#3 348595593#4 45409802#0 1266100694#0 1266100694#1 45409804#0" />
    </vehicle>
    <vehicle id="32" depart="32.00">
        <route edges="1133100490 1133100489#0 1191278361 1191278360 1118624103 140695168#0 61338749 35834145 1147926269#0 359277409 357188411#0 357188411#4 359162237#0 359162237#1 358086115 35842039#0 359162232 35842041#0 357759072#0 35836799 1071267614#0 -35836963#2 -35836963#1 359162230#0 359162230#1 35836892#0 35836897#0 35836897#3 35836794#0 35836947#0 35836947#3 35836948#0 112560895#0" />
    </vehicle>
    <vehicle id="33" depart="33.00">
        <route edges="-494621260#2 35842430#0 35842451#0 357734828#0 357734828#1 357734828#3 357734828#4 36226732#0 36226732#1 36226732#3 1147926267#0 1147926266 490175893 36226521 36226822#0 36226821#0 36226821#1 36226821#2 36226821#3 36226821#4 357171246 151151441#0 151151441#1 35842731#0 35842731#1 357171234 284759961 565366953 191983605#0 191983605#1 191983605#2 357428772#0 357428772#1 191983604 1188491376#0 1188491376#1 1190124732#0 135476529#0 135476575#0 1102524192#2 1102524192#3 135476582#0 972271994" />
    </vehicle>
    <vehicle id="34" depart="34.00">
        <route edges="74486816 344461907#0 344461907#1 1266262911 74486847#0 74486847#2 98841093#5 98841093#7 191454926#0 191454908#0 534873053 534873042#0 536617357#0 536617357#2 534873056#2 359277407#0 359277408 348881791#0 183755702#0 27131330#0 27131330#1 1429049239 35854623#0 35854623#3 35854623#4 35854623#7 35854623#9 35854623#10 35854623#12 35854623#16 474221202 35842069#0 -28821579#13 -28821579#11 -28821579#9 -28821579#8 -28821579#7 -28821579#5 1181990778#0 1181990778#2 35855719#9 35855719#10 1181990777#0" />
    </vehicle>
    <vehicle id="35" depart="35.00">
        <route edges="35834643#0 517975911 1188513946 357432611 35834694#0 35834694#1 -612581180#4 -612581180#2 -612581180#0 399855373#1 399855370#0 1322073214 1322073213 183735284#0 183735284#1 183743631#0 1322073210 459801336 809582003 183743588#0 183743588#1 183743588#3 183743588#5 1476872139#0 495260405#0 35842054#0 -358189134 -1196094082#1 -357427567 -1196094081 -1202785096 -1188811611 -183743572 35842058 358189143 183755699#0 183755699#1 -190785482#3 -190785482#2 35850111#0 35850111#1 183755697#0 183755697#2 183755697#3 183755697#5 183755697#6 183755697#7 183755697#8 183755697#10 183755697#11 183755697#12 183755697#13 35846723#0 35846723#3 35846723#4 35846723#5 35846723#9 357794342#0 357794342#3 357794342#11 294891020 357424601#0 35833467 190816343#0 35833458 35836987#0 35836987#3 61338753#0 550682304 61338752#0 61338752#4 61338752#5 359277423 359277424 35801162#0 35801162#1 36068299#0 36068301#0 256721126 568949371 143314725#0 1185728253 1185725327 1185728252#0 1185725326 1185728251 1185725340#0 195493140#0 195493140#2 195493140#4 195493140#7 348595593#0 348595593#3 140990886#0" />
    </vehicle>
    <vehicle id="36" depart="36.00">
        <route edges="828117874 195727151 195727143 195727146 195727150 195727150-AddedOffRampEdge 23415907 23415908 86419215 205500749 205500750 98841103 896545468#0 98841101 1188890191 191454928#0 191454906 534873059 359280384 45409807#0 1181951484 344461896#0 191454925#0 191454925#1 1191756922#0 1191756922#1 1191756922#3 1191756922#5 1050575807 1050575808 560977302#0 184128430#0 184128430#1 -358182784#4 -358182784#3 -358182784#2 -358182784#0 -358182781 184128398#0 184128412#1 184128405" />
    </vehicle>
    <vehicle id="37" depart="37.00">
        <route edges="-98849683#1 98849683#0 344499613 1191748006 1494467056 357794352#0 357794352#1 1493003493 1450812433#0 1450812433#1 256589579#0 98848983 -98848983" />
    </vehicle>
    <vehicle id="38" depart="38.00">
        <route edges="343435980 61340013#3 61340013#4 61340013#7 98847255#5 35836698#0 35836698#3 35836698#4 890126841#0 344497098 344497097#0 344497097#1 1182395575 191454907 36071664#2 36071652 1234999198 831698014#0 831698014#4 831698014#5 359277405 1184082622 35801645 35801647 357167018#0 357171243 1188491376#0 1188491376#1 1190124732#0 1190124732#2 989194622#0 989194623 1102524194 1102524193#0" />
    </vehicle>
    <vehicle id="39" depart="39.00">
        <route edges="344253490#0 -45409801#0 -569025634 -896545469 569025635 343471466#0 343471467#0 343471467#1 343471467#4 195493141#0 195493141#6 1191746781 1191746783 348595589#0 348595589#1 348595589#2 348595589#4 98865384#0 98865384#2 1050008657 344495219#0 890126842#0 890126842#2 98869991#0 98869991#1 98869991#2 98869991#3 98869991#4 35801295#0 372818264#0 372818264#1 372818263 191454936#0 191454936#1 191454936#3 586298332#0 191454930#0 372818282 191454934#0 1180720954#0 436981383#0 23161466 77727765#0" />
    </vehicle>
    <vehicle id="40" depart="40.00">
        <route edges="140709658#0 140709658#1 533822569 136123199#0 136123199#1 136123184#0 256721120#8 357818532#0 357818532#1 136123198#0 1188604797#1 1188604797#3 1188604797#5 1188604797#8 1188604797#11 343645451#0 343645451#1 45409802#0 45409802#3 45409802#4 357794349 343645457#0 191454906 534873059 205500764 534873049#0 534873049#2 1138276127 86419216 359280326#0 359280390#2 139015375#0 75636248#7 75636248#8 75636248#9 490600114#4 490600114#7 35779195#5 37170098 -35779214 -359280343#4 -359280339#3 -70930782" />
    </vehicle>
    <vehicle id="41" depart="41.00">
        <route edges="98885187 344740302#1 77725625 77609169#0 23161453#0 -374242747#1 -343436048#2 -343436048#1 -374543887#1 -374242746 -77755772#1 77755769#0 359345612 372800317#0 1188701169 357759054#0 374265557#0 372801901 77727767#0 359345615#0 1350613508 1188462400#0 359284806#0 372818289#0 372823146 259218556#0" />
    </vehicle>
    <vehicle id="42" depart="42.00">
        <route edges="-184128403#0 344461923#0 344461923#3 -567165900 1072389007 324831045#0 -567093450 -548385118#1 -548386822 -184128427#4 -184128427#3 -560977302#1 1050575812 557952144 98841093#5 98841093#7 191454926#0 191454908#0 534873053 534873042#0 536617357#0 536617357#2 534873056#2 359277407#0 359277408 359162237#1 358086115 35842039#0 359162232 357759055 -853188804#3 140695179 359277414 1157585106 -140695190#12 -140695190#10 -140695190#8 -183848959#2 -183848957#1 140695196#5 -140695185#1" />
    </vehicle>
    <vehicle id="43" depart="43.00">
        <route edges="-295024817 -609025405 295024815#1 -1132438704 -255764683 -36202263#7 -36202263#6 -36202263#2 -36202263#0 1062870005 493711339 933351274 493711336 933351272 35842430#0 35842451#0 35842383#0 35842383#3 294891025#0 294891025#1 294891025#2 294891025#3 35842290#0 294891022#6 183755706#0 183755706#1 357734835#0 357734835#1 183743568 183743572 1188811611 1202785096 1196094081 357427567 1196094082#0 358189134 256702685#0 256702685#2 183743580#3 183743580#4 183743580#5 -183743585#4 475354984 881900028 843049839 183818549 183755701#1 190785480#0 843067226 357786298#0 357786298#1 469774961#0 469774961#2 469774961#3 905622870#0 905622870#1 566145445#0 146273146#0 146273146#4 146273146#5 146273146#6 469790057#0 469790058 112581484#0 358306371#6" />
    </vehicle>
    <vehicle id="44" depart="44.00">
        <route edges="375054182 374265545#0 372800315 374265553#0 374265547 1188701167 1188701168 372800316 374265549#0 61415116#0 359345620 359345619 531995517#0 344508344 77727782#0 372180608 358303729 372180620 196462921#0 835227997 835227998 832892263 832892260 511066469#0 421813784 833143545 358055209 372818281#0 149953114#0 372818273#0 372823132 372823134#0 35777852 149953111 760004443 190796497#0 1188462842 -277000197#1 149953122 35903681#0 35903052#0 190816352#0 358195690 35923003#0 35923003#1 35923003#2 35923003#3 35923003#4 35923003#6 35923003#7 357167018#0 357171243 1188491376#0 1188491376#1 989194621#1 989194621#2 35773043#0 35773043#1 357171234 357171238#0 357171238#1 488217961 488217959 190785484#0 -958198746#1 35858019 958196191 36200950 358189140#0 -958198749#1 36201061#0 35923266#0 35923266#1 36201149#0 358189138 36226732#0 36226732#1 36226732#3 315765582 35773179 1242225920 35842663#0 35842663#1 358195685#0 358195685#2 36202263#0 36202263#1 36202263#3 36202263#7 255764683 1159213771 -295024815#1 -295024815#0 164426874#5" />
    </vehicle>
    <vehicle id="45" depart="45.00">