<?xml version="1.0" encoding="UTF-8"?>

<!-- generated on 2026-06-02 17:33:39.640855 by Eclipse SUMO randomTrips.py v1.26.0
<configuration>
    <net-file value="osm.net.xml.gz"/>
    <route-file value="precalculated_routes.rou.xml"/>
    <fringe-factor value="5"/>
    <end value="1800.0"/>
</configuration>
-->

<!-- generated on 2026-06-02T17:33:38.060028+01:00 by Eclipse SUMO duarouter 1.26.0
<duarouterConfiguration xmlns:xsi="http://www.w3.org/2001/XMLSchema-instance" xsi:noNamespaceSchemaLocation="http://sumo.dlr.de/xsd/duarouterConfiguration.xsd">

    <input>
        <net-file value="osm.net.xml.gz"/>
        <route-files value="trips.trips.xml"/>
    </input>

    <output>
        <output-file value="precalculated_routes.rou.xml"/>
        <alternatives-output value="NUL"/>
    </output>

    <time>
        <begin value="0"/>
        <end value="1800.0"/>
    </time>

    <report>
        <no-warnings value="true"/>
        <ignore-errors value="true"/>
        <no-step-log value="true"/>
    </report>

</duarouterConfiguration>
-->

<routes xmlns:xsi="http://www.w3.org/2001/XMLSchema-instance" xsi:noNamespaceSchemaLocation="http://sumo.dlr.de/xsd/routes_file.xsd">
    <vehicle id="0" depart="0.00">
        <route edges="358303740 77609161#0 77609161#1 77609161#2 77609161#3 1188621664#0 1188621664#1 98884184 98884186#0 98884186#1 98884186#2 98884186#3 77609185#0 77609185#1 -810335589#3 -810335589#2 -810335589#1 -810335589#0 810335590#0 372795130#1 372795133 357759059#0 372795135 357759076#0 190429164#0 190429164#1 190429164#2 190429164#3 190429164#4 190429164#5 190429164#6 359162240#0 77609164#0 77609164#1 77609164#3 77609164#5 360301730#0 360301725#0 360301725#2 947216242#0 947216242#1 356567256#0 356567256#1 1450812433#0 1450812433#1 1191748114#0 1191748113 195495863#0 256589578#0 256589578#1 256589578#3 256589578#4 256589578#5 360259908#0 360259905#2 -1185728055#2 -1185728055#1 -1185727975#1 -1185727975#0 -1185727976 -1185727716 -1185727715 -1185727713 -1185727712 -1185727714 -1185727437#1 -1185727437#0 -1185727438 -1185727439 -1185727256 -1185726788 -1185726787 -1185726518 -1185726517 -1185726300 -1185726301 -359280329 -1185725462 -1185725461 -35801145#1 -1185725340#1 -1185725340#0 -1185728251"/>
    </vehicle>
    <vehicle id="1" depart="1.00">
        <route edges="36054912 368199634#0 368199634#1 368199634#2 36054855#0 36054855#1 36054855#2 36054855#3 36054855#4 36054855#5 36054937 357165696#0 357165696#1 -36006170#1 -36006170#0 -834743820 36005941 1196399869#0 1196399869#1 1196399869#2 1196399869#3 1133075248 -36006218#6 -36006218#5 -36006218#4 -36006218#3 -36006218#2 -36006218#1 -36006218#0 -834743819 36006202#0 36006202#1 -517975906#4 -517975906#3 -517975906#2 -517975906#1 -517975906#0 -1514052124#3 -1514052124#2 -1514052124#1 -1514052124#0 -1188513898 -566412622 517975907 357432611 35834694#0 35834694#1 -612581180#4 -612581180#3 -612581180#2 -612581180#1 -612581180#0 -399855372#0 399855373#1 399855370#0 399855370#1 399855370#2 1322073214 1322073213 183735284#0 183735284#1 183743631#0 183743631#1 183743631#2 183743631#3 1322073210 459801336 809582003 183743588#0 183743588#1 183743588#3 183743588#4 183743588#5 1476872139#0 1476872139#1 1476872139#2 1476872139#3 1196101857 495260405#0 495260405#1 495260405#2 35842054#0 35842054#1 256702685#0 256702685#1 256702685#2 256702685#3 183743580#3 183743580#4 183743580#5 183743580#6 -183755704#6 -183755704#5 -183755704#4 -183755704#3 -183755704#2 -183755704#1 -183755704#0 -183755705 35855719#0 35855719#1"/>
    </vehicle>
    <vehicle id="2" depart="2.00">
        <route edges="164422409#0 164422409#1 228185317 228185316#2 228185316#3 311402479 35769656#0 35769656#1 -571682578 75503608#0 257072921#0 61494208#0 61494208#1 166301879 190794130 357476509 190794128 836662623 556769983 -835771553 -838127293#3 -838127293#1 -766243192#0 -35901833#1 838607006 627718562#0 191454927#0 191454927#1 191454927#2 35903166#0 35903166#1 656659021 27131168#0 27131168#2 27131168#4 27131168#5 190816355 61279128#0 61279128#1 61279128#2 61279128#3 61279128#4 190816352#0 190816352#1 190816352#2 587013326#1 358195690 1189949001#0 1189949001#1 1189949001#2 35923003#0 35923003#1 35923003#2 35923003#3 35923003#4 35923003#5 35923003#6 35923003#7 35923003#8 35923003#9 -35801647 -35801645 295024808 831698013#0 831698013#1 831698013#2 344499611#0 344499611#1 35801623#0 35801623#1 565147322#0 565147322#1 35837056#0 35837056#1 35837056#2 195493133#0 195493133#1 195493133#2 140993942#0 140993942#1 140993942#2 140993942#3 539610996#0 195493140#0 195493140#2 195493140#3 195493140#4 195493140#5 195493140#7 348595593#0 348595593#1 348595593#2 348595593#3 348595593#4 348595593#5 -343645451#3 -343645451#2 -343645451#1 -343645451#0 -1188604797#12"/>
    </vehicle>
    <vehicle id="3" depart="3.00">
        <route edges="-567143460#2 -567143460#1 -853192848 -567143461#2 -567143461#1 -567143461#0 -140695188#1 -140695188#0 359162238#1 359162238#2 -357759072#5 -357759072#4 -357759072#3 -357759072#2 -357759072#1 -357759072#0 -35842041#3 -35842041#2 -35842041#1 -35842041#0 357759055 359277410 140695163#0 140695163#1 140695163#2 140695163#3 140695163#4 140695163#5 140695163#6 140695163#7 357759080 359277419 359277418#0 205500761#0 205500761#1 205500758#0 205500758#2 205500758#3 205500758#4 35833578 1188468648#0 1188468648#1 1188468648#2 490605419 490605420 35833582#0 35833582#1 1188604310 1188604309#0 1188604309#1 1188604309#2 1188604309#3 35801162#0 35801162#1 36068299#0 36068299#1 36068301#0 36068301#1 36068301#2 36068301#3 36068301#4 256721126 568949371 143314725#0 143314725#1 143314725#2 1185728254 1185728253 1185725327 1185728252#0 1185728252#1 1185725326 1185728251 1185725340#0 1185725340#1 195493140#0 195493140#2 195493140#3 195493140#4 195493140#5 195493140#7 98837661#0 98837661#1 98837661#2 1191746785 343659445 1191746780#0 1191746780#1 1191747208 1191747275#0 1191747275#1 1191747275#2 344499613 1191748006 1494467056 357794352#0 357794352#1 1493003493 1450812433#0 1450812433#1 1191748114#0 1191748113 195495863#0 256589578#0 256589578#1 256589578#3 256589578#4 256589578#5"/>
    </vehicle>
    <vehicle id="4" depart="4.00">
        <route edges="-1185727437#0 1185727437#0 1185727437#1 1185727714 1185727712 1185727713 1185727715 1185727716 98865110#0 98865110#1 98865110#2 98869991#3 98869991#4 35801295#0 35801295#1 372818264#0 372818264#1 372818263 1185468978 191454936#0 191454936#1 191454936#2 191454936#3 586298332#0 586298332#1 191454930#0 191454930#1 372818282 191454934#0 1180720953 832977690 453873233#0 453873233#1 833142499#0 833142499#1 843593899 843593900 760003374 553295965 930763810 614779081#0 614779081#1 34474997#0 34474997#2 34474997#3 34474997#4 34474997#6 34474997#7 770855633#0 -591569082 -621979905 35902785#0 756195260#0 190525285#0 358055191#0 358055191#1 770855632 23051254#0 23051254#1 23051254#2 23051254#3 302279754#0 302279754#1 75503611 929372881#0 929372881#1 571682578 627468528#0 627468528#1 665676423 665676424 571682579 1348707510#0 1348707510#1 1348707512 35835163#0 35835163#1 931968433#0 931968433#1 931968435#0 931968435#1 931968435#2 931968439 95091740 931968441#0 931968441#1 931968441#2 35769792#0 35769792#1 357794350#0 1120337088 489805565#0 -490751090#1 -490751090#0"/>
    </vehicle>
    <vehicle id="5" depart="5.00">
        <route edges="358336267#0 358336267#1 -358336267#1 -358336267#0 -1428106420 -112584753#7 -112584753#6 -112584753#5 -112584753#4 -112584753#3 -112584753#2 -112584753#1 -112584753#0 183856209#3 183856209#4 183856209#5 183856209#6 183856209#7 183856209#8 358306375#0 358306375#1 358306375#2 112587279#0 112587279#1 112587279#2 292203592#18 112587283#0 389744942#0 185036579#2 389744943#0 389744943#1 389744943#2 389744943#3 357759049 389744947#0 389744947#2 389744947#3 389744947#4 389744947#5 389744947#7 35842036#0 35842036#2 35842036#3 76829354#1 358086111#0 205500762 205500761#0 205500761#1 205500758#0 205500758#2 205500758#3 205500758#4 35833578 1188468648#0 1188468648#1 1188468648#2 490605419 490605420 35833582#0 35833582#1 1188604310 1188604309#0 1188604309#1 1188604309#2 1188604309#3 35801162#0 35801162#1 359280353 359280356 35833523#0 35833523#1 35833523#2 35833523#3 36068514#0 36068514#1 36068588 1188468832 36070059#0 36070059#1 -339606509#2 -339606509#1 -339606509#0 567907397 339606510 339606508"/>
    </vehicle>
    <vehicle id="6" depart="6.00">
        <route edges="-567896182#1 -567896182#0 -141433500#1 -141433500#0 141433497#3 141433497#1 -141433498 -136123189#1 -136123189#0 -336723704#2 -336723704#1 -140810000#1 -140810000#0 35801162#1 36068299#0 36068299#1 36068301#0 36068301#1 36068301#2 36068301#3 36068301#4 256721126 568949371 143314725#0 143314725#1 143314725#2 1185728254 1185728253 1185725327 1185728252#0 1185728252#1 1185725326 1185728251 1185725340#0 1185725340#1 195493140#0 195493140#2 195493140#3 195493140#4 195493140#5 195493140#7 143314728 348595589#1 348595589#2 348595589#4"/>
    </vehicle>
    <vehicle id="7" depart="7.00">
        <route edges="45409823#1 45409823#2 45409823#3 45409823#4 191454926#0 191454926#1 191454926#2 191454926#3 191454908#0 534873053 534873042#0 536617357#0 536617357#1 536617357#2 534873056#1 534873056#2 359277407#0 359277407#1 359277407#2 359277407#3 359277408 348881791#0 348881791#1 35842037#0 183755702#0 183755702#1 183755702#2 27131330#0 27244535 256551225#0 256551225#1 292203593#0 292203593#1 292203593#2 292203593#3 357786298#1 357786298#2 469774961#0 469774961#1 469774961#2 469774961#3 469774961#4 146273149#0 146273149#1 112581462#0 303115433#0 303115433#1 303115433#2 1182367362 141144523#1 141144523#2 141144523#3 808102750#2 112581472#0 -112581472#0"/>
    </vehicle>
    <vehicle id="8" depart="8.00">
        <route edges="45409808#1 45409808#2 45409808#3 45409808#4 45409808#5 344461907#0 344461907#1 344461907#2 1266262911 74486847#0 74486847#1 74486847#2 74486847#3 74486847#4 74486847#5 74486847#6 98841093#5 98841093#6 98841093#7 191454926#0 191454926#1 191454926#2 191454926#3 191454908#0 534873053 534873042#0 536617357#0 536617357#1 536617357#2 534873056#1 534873056#2 359277407#0 359277407#1 359277407#2"/>
    </vehicle>
    <vehicle id="9" depart="9.00">
        <route edges="1189941497#0 1189941497#1 -1189941497#1 -1189941497#0 -1132444887#2 -1132444887#1 -1132444887#0 -1159213773#1 -1159213773#0 -61413259#0 -1159213774 -1132444885 -35777672#1 -35777672#0 -36202263#7 -36202263#6 -36202263#5 -36202263#4 -36202263#2 -36202263#1 -36202263#0 1062870005 493711339 933351274 493711336 933351272 35842430#0 35842430#1 35842451#0 35842451#1 35842383#0 35842383#1 35842383#2 35842383#3 294891025#0 294891025#1 294891025#2 294891025#3 35842290#0 35842290#1 294891022#6 294891022#8 183755706#0 183755706#1 357734835#0 357734835#1 183743568 183743572 1188811611 1202785096 1196094081 357427567 1196094082#0 1196094082#1 358189134 256702685#0 256702685#1 256702685#2 256702685#3 183743580#3 183743580#4 183743580#5 -183743585#4 -183743585#3 -183743585#2 -183743585#1 -183743585#0 475354984 881900028 35855464 190778990#0 190778990#1 190778990#2 190778990#3 928316928#0 928316928#1 928316928#2 928316928#3 928316928#4 35896210#0 1511332839 1511332838#0 1511332838#1 35896183#0 35896183#1 35896183#2 35896183#3 -35896101#1 -35896101#0"/>
    </vehicle>
    <vehicle id="10" depart="10.00">
        <route edges="98775360#1 98775360#2 -343671697#5 360300690 497257156 360300688#0 360300688#1 343670534#0 343670534#1 343670534#2 1185727975#0 1185727975#1 1185728055#0 1185728055#2 -343435961#2 -343435961#1 98848979 1079050426 343435965 497257268#0 497257268#1 497257268#2 497257268#3 497257268#4 497257268#5 497257268#6 497257268#7 497257268#8 497257268#9 372818270#0 372818270#1 149052771#0 77727771#0 77727771#1 359524760 360495083#0 360495083#1 77728095 77728091 866034244 372180619#0 372180619#1 372180619#2 196462927 372180618#1 422207230#0 422207230#1 344508343#0 344508343#1 344508343#2 1190767897#0 1190767897#1"/>
    </vehicle>
    <vehicle id="11" depart="11.00">
        <route edges="-191382434 -191382435 -35772671 34435272#0 34435272#1 435720576 1153422818#0 1153422818#1 1153422818#2 1153422818#3 1153422818#4 1153422818#5 1153422818#6 -1153422818#6 -1153422818#5 -1153422818#4 -1153422818#3 -1153422818#2 -1153422818#1 -1153422818#0 -435720576 -34435272#1 -34435272#0 35772671 191382435 191382434 35772696 1306227350 183832066#0 435720575 166301882 190793000#0 190793000#1 190793000#2 836662623 556769983 -835771553 -838127293#3 -838127293#1 -766243192#0 -35901833#1 838607006 627718562#0 -627718562#1 -838607006 35901833#0 -255925785#2"/>
    </vehicle>
    <vehicle id="12" depart="12.00">
        <route edges="561259977 1383489172#0 1383489172#1 1383489172#2 29400958#0 29400958#1 29400958#2 29400958#3 29400958#4 1270438667#1 1270438667#2 1270438667#3 1270438667#4 1270438667#5 1270438667#6 1270438667#7 814324504#0 814324504#1 561259974#0 561259974#1 35842052#0 35842052#1 1191452144#0 1191452144#1 1191452145 1191452146#0 1191452146#1 185036271#0 185036271#1 1270396743#1 1270396743#2 1270396743#3 677901924#0 677901924#1 677901924#2 677901924#3 677901924#4 677901924#5 677901924#6 677901924#7 677901924#8 233582515 511066499 1202787063 183743576#0 183743576#1 511066510 511066507 511066502 183743569#0 183743569#1 183743569#2 -358189134 -1196094082#1 -1196094082#0 -357427567 -1196094081 -1202785096 -1188811611 -183743572 35842058 358189143 190792402 190792404 183755707 -294891022#8 -294891022#7 -294891022#5 -294891022#3 -294891022#2 -294891022#1 -294891022#0 35923383#0 35923383#1 35923383#2 358189138 36226732#0 36226732#1 36226732#2 36226732#3 36226732#4 36226732#5 1147926267#0 1147926267#1 1147926266 490175893 36226521 36226822#0 36226822#1 36226822#2 315765575 36226821#0 36226821#1 36226821#2 36226821#3 36226821#4 357171246 151151441#0 35773154"/>
    </vehicle>
    <vehicle id="13" depart="13.00">
        <route edges="45409812#13 -358303745 358303739#0 358303739#1 358303739#2 358303739#3 358303739#4 358303739#5 358303739#6 358303739#7 358303739#8 358303739#9 358303739#11 358303739#13 358303739#14 358303750 77611431#0 372795136#2 372795140#1 810335590#0 372795130#1 372795133 357759059#0 372795135 357759076#0 190429164#0 190429164#1 190429164#2 190429164#3 190429164#4 190429164#5 190429164#6 359162240#0 77609164#0 77609164#1 77609164#3 77609164#5 360301730#0 360301725#0 360301725#2 947216242#0 947216242#1 356567256#0 356567256#1 1450812433#0 1450812433#1 1191748114#0 1191748113 195495863#0 256589578#0 256589578#1 256589578#3 256589578#4 256589578#5 360259908#0 360259905#2 -1185728055#2 -1185728055#1 -1185727975#1 -1185727975#0 -1185727976 -1185727716 -1185727715 -1185727713 -1185727712 -1185727714 -1185727437#1 -1185727437#0 -1185727438 -1185727439 -1185727256 -1185726788 -1185726787 -1185726518 -1185726517 -1185726300 -1185726301 -359280329 -1185725462 -1185725461 -35801145#1 -1185725340#1 -1185725340#0 -1185728251 -1185725326 -1185728252#1 -1185728252#0 -1185725327 -1185728253 -1185728254 -143314725#2 -143314725#1 -143314725#0 -568949371 -256721126 -36068301#4 -36068301#3 -36068301#2 -36068301#1 -36068301#0 36068301#0 36068301#1"/>
    </vehicle>
    <vehicle id="14" depart="14.00">
        <route edges="288400815#1 288400815#2 288400815#3 288400815#4 567152668#0 567152668#1 567152668#2 140695210#0 140695210#1 567160922#0 567160922#1 140695264#0 140695264#1 140695264#2 140695264#3 140695264#4 140695254#4 570390366#0 570390366#1 140695249#0 140695249#1 205500758#3 205500758#4 205500759#0 205500765#0 205500765#1 205500769#0 205500769#1 98841092#0 98841092#1 205500778 191454922#0 191454922#1 35787071#0 896560377#0 896560377#1 896560377#2 98841090#0 98841090#1 1188868400#1 1181959113 1181959115#1 896545468#0 98841101"/>
    </vehicle>
    <vehicle id="15" depart="15.00">
        <route edges="140695185#3 140695185#4 140695185#5 -140695188#5 -140695188#4 -140695188#3 -140695188#2 -140695188#1 -140695188#0 359162238#1 359162238#2 -357759072#5 -357759072#4 -357759072#3 -357759072#2 -357759072#1 -357759072#0 -35842041#3 -35842041#2 -35842041#1 -35842041#0 357759055 359277410 140695163#0 140695163#1 140695163#2 140695163#3 140695163#4 140695163#5 140695163#6 140695163#7 357759080 359277419 359277418#0 35834021 359277420#0 359277420#1 27611567#0 27611567#1 27611567#2 27611567#3 27611567#4 27611567#5 357188410#0 1188470235#0 836456678 61338749 359162233 35836988#0 35836988#1 35836988#2 344499615#0 344499615#1 344499615#2 344499615#3 344499615#4 61338754#0 61338754#1 61338754#2 61338754#3 344499611#0 344499611#1 35801623#0 35801623#1 565147322#0 565147322#1 35837056#0 35837056#1 35837056#2 195493133#0 195493133#1 195493133#2 36071633#0 36071633#1 890126842#0 890126842#1 890126842#2 98869991#0 98869991#1 98869991#2 98869991#3 98869991#4 35801295#0 35801295#1 372818264#0 343436002#0 343436002#1 343436002#2"/>
    </vehicle>
    <vehicle id="16" depart="16.00">
        <route edges="493711337#0 493711337#1 493711337#2 493711337#3 493711337#4 493711337#5 -493711337#5 -493711337#4 -493711337#3 -493711337#2 -493711337#1 -493711337#0 -1213891203 -1213891202#1 -1213891202#0 -933351271 -493711340 493711336 933351272 35842430#0 35842430#1 35842451#0 35842451#1 357734828#0 357734828#1 357734828#2 357734828#3 357734828#4 357734828#5 36226732#0 36226732#1 36226732#2 36226732#3 36226732#4 36226732#5 315765582 190792397 -315765583#1 -315765583#0 -1235568536#2 -1235568536#1 -1235568536#0 -1153422818#6 -1153422818#5 -1153422818#4 -1153422818#3 -1153422818#2 -1153422818#1 -1153422818#0 -435720576 -34435272#1 -34435272#0 35772671 191382435 191382434 35772696 1306227350 183832066#0 435720575 166301882 190793000#0 190793000#1 190793000#2 836662623 556769983 -835771553 -838127293#3 -838127293#1 -766243192#0 -35901833#1 838607006 627718562#0 1280111588 146544718#1 146544718#2 832977696 832977699#0 832977699#1 832977694 344508347#0 344508347#1 344508347#2 344508347#3 833143545 421816072 191454934#0 1180720953 835227998 421813782#0 421813782#1 832892262 358350341 1121712447 23042429#0 23042429#1 23042429#3 23042429#5 23042429#6 23042429#7 358055216#0 584500737#0 584500737#1 584500737#2 35801536#0 35801536#1"/>
    </vehicle>
    <vehicle id="17" depart="17.00">
        <route edges="571682577#1 110348050#0 665676420 75503612 -665676423 -627468528#2 -627468528#0 -571682578 75503608#0 257072921#0 61494208#0 61494208#1 166301879 190794130 357476509 190794128 836662623 556769983 -835771553 -838127293#3 -838127293#1 -766243192#0 -35901833#1 838607006 627718562#0 191454927#0 191454927#1 191454927#2 35903166#0 35903166#1 656659021 27131168#0 27131168#2 27131168#4 27131168#5 190816355 61279128#0 61279128#1 61279128#2 61279128#3 61279128#4 190816352#0 190816352#1 190816352#2 587013326#1 358195690 1189949001#0 1189949001#1 1189949001#2 35923003#0 35923003#1 35923003#2 35923003#3 35923003#4 35923003#5 35923003#6 35923003#7 35923003#8 35923003#9 -35801647 -35801645 295024808 831698013#0 831698013#1 831698013#2 344499611#0 344499611#1 35801623#0 35801623#1 565147322#0 565147322#1 35837056#0 35837056#1 35837056#2 195493133#0 195493133#1 195493133#2 140993942#0 140993942#1 140993942#2 140993942#3 539610996#0 195493140#0 195493140#2 195493140#3 195493140#4 195493140#5 195493140#7 348595593#0 348595593#1 348595593#2 348595593#3 348595593#4 348595593#5 45409802#0 45409802#1 45409802#2 45409802#3 45409802#4 45409802#5 357794349 343645457#0 343645457#1 343645457#2 191454906 534873059 359280384 45409807#0 45409807#1 1181951484 344461896#0 344461896#1 191454925#0 191454925#1 1191756922#0 1191756922#1 1191756922#2 74486849#6 -344461952#1 -344461952#0 -1266262911 -344461907#2 -344461907#1 344461907#1 344461907#2"/>
    </vehicle>
    <vehicle id="18" depart="18.00">
        <route edges="35923003#3 35923003#4 35923003#5 35923003#6 35923003#7 35923003#8 35923003#9 -35801647 -35801645 295024808 831698013#0 831698013#1 831698013#2 344499611#0 344499611#1 35801623#0 35801623#1 357794339#0 357794339#1 357794339#2 357794339#3 357794339#4 357794339#5 357794339#6 357794339#7 357794339#8 357794339#9 357794339#10 256721120#0 256721120#1 256721120#2 256721120#3 256721120#4 256721120#5 256721120#6 567896187#0 567896187#1 339785749#0 339785749#1 -339784999 -336723704#2 -336723704#1 -336723704#0 -136123199#2"/>
    </vehicle>
    <vehicle id="19" depart="19.00">
        <route edges="-664401176 664401176 1094980929 1094980923 1094980928 1094980927 1094980926 1133075251#1 1133075249 834743821 357794347 1133075248 -36006218#6 -36006218#5 -36006218#4 -36006218#3 -36006218#2 -36006218#1 -36006218#0 -834743819 36006202#0 36006202#1 -517975906#4 -517975906#3 -517975906#2 -517975906#1 -517975906#0 -1514052124#3 -1514052124#2 -1514052124#1 -1514052124#0 -1188513898 -566412622 517975907 357432611 35834694#0 35834694#1 -612581180#4 -612581180#3 -612581180#2 -612581180#1 -612581180#0 -399855372#0 399855373#1 399855370#0 399855370#1 399855370#2 1322073214 1322073213 183735284#0 183735284#1 183743631#0 183743631#1 183743631#2 183743631#3 1322073210 459801336 809582003 183743588#0 183743588#1 183743588#3 183743588#4 183743588#5 1476872139#0 1476872139#1 1476872139#2 1476872139#3 1196101857 495260405#0 495260405#1 495260405#2 35842054#0 35842054#1 256702685#0 256702685#1 256702685#2 256702685#3 183743580#3 183743580#4 183743580#5 -183743585#4 -183743585#3 -183743585#2 -183743585#1 -183743585#0 475354984 881900028 843049839 183818549 183755701#0 183755701#1 183755701#3 190785480#0 190785480#2 843067226 357786298#0 357786298#1 357786298#2 358306374 112587309#0 112587309#1 112587309#2 292203592#4 292203592#5 292203592#6 112587272#0 112587272#1 112587272#2"/>
    </vehicle>
    <vehicle id="20" depart="20.00">
        <route edges="-183755841#0 183755782#0 183755782#1 35850111#1 183755697#0 183755697#1 183755697#2 183755697#3 183755697#4 183755697#5 183755697#6 183755697#7 183755697#8 183755697#9 183755697#10 183755697#11 183755697#12 183755697#13 183755697#14 35846723#0 35846723#1 35846723#2 35846723#3 35846723#4 35846723#5 35846723#6 35846723#7 35846723#8 35846723#9 35846723#10 357794342#0 357794342#1 357794342#2 357794342#3 357794342#4 357794342#5 357794342#6 357794342#7 357794342#9 357794342#10 357794342#11 294891020 357424601#0 357424601#2 35833467 190816343#0 190816343#1 35833458 35836987#0 35836987#1 35836987#2 35836987#3 61338753#0 550682304 61338752#0 61338752#1 61338752#2 61338752#3 61338752#4 61338752#5 61338752#6 61338752#7 61338752#8 61338752#9 359277423 359277424 35801162#0 35801162#1 36068299#0 36068299#1 36068301#0 36068301#1 36068301#2 36068301#3 36068301#4 256721126 568949371 143314725#0 143314725#1 143314725#2 1185728254 1185728253 1185725327 1185728252#0 1185728252#1 1185725326 1185728251 1185725340#0 1185725340#1 195493140#0 195493140#2 195493140#3 195493140#4 195493140#5 195493140#7 98837661#0 98837661#1 98837661#2 1191746785 343659445 1191746780#0 1191746780#1 1191747208 1191747275#0 1191747275#1 1191747275#2 344499613 1191748006 1494467056 357794352#0 357794352#1 98847197 98847180#0 360301732 356567238#1 360301715#0 360301727#0 360301727#2 360301722#0 360301718#0 360301718#1 360301716#0 360301716#1 357759120 358182791#0 358182791#1 358182791#2 358182791#4 358182791#5 190429166#0 190429166#1 190429166#2 190429166#3 190429166#4 190429166#5 190429166#6 190429166#7 372795128#1 100294139#0 360303517#0 360303517#2 360303517#3 372795148 -77609185#6 -77609185#5 -77609185#4 -77609185#3 -77609185#2 -77609185#1 -77609185#0 -88454990#7 -88454990#6 -88454990#5 -88454990#4 88455917#0 88455917#1 -569696685 -88499635"/>
    </vehicle>
    <vehicle id="21" depart="21.00">
        <route edges="-28821579#10 28821579#10 28821579#11 28821579#12 28821579#13 190785478#0 190785478#1 190785478#3 190785478#4 190785478#5 357427568#0 357427568#2 1428106416 843054329#0 28821581 205500755 30098105#0 30098105#1 30098105#3 256551225#0 256551225#1 256551225#2 256551225#4 256551225#5 389744945#0 389744945#1 389744945#2 389744945#3 389744944#1 292203592#17 292203592#18 292203592#19 292203592#20 292203592#21 292203592#22 141882617#0 141882617#1 141882617#2 -183856209#6 -183856209#5 288400363#0 288400363#1 288400363#2 288400363#3 288400363#4 288400363#5 474170192 112584749#0 112584749#1 112584749#2 112584749#3 288400364 358336241#0 112584768#0 112584768#1 112584768#2"/>
    </vehicle>
    <vehicle id="22" depart="22.00">
        <route edges="358195686#1 358195686#2 358195686#3 -36202395 493711341 933351273 493711336 933351272 35842430#0 35842430#1 35842451#0 35842451#1 35842383#0 35842383#1 35842383#2 35842383#3 35777715#0 35777715#1 35777715#2 294891022#0 294891022#1 294891022#2 294891022#3 1069158698#0 1069158698#1 1069158698#2 1069158698#3 35777690#0 35777690#1 35777690#2 35777690#3 35777690#4 35777690#5 35855767 183755697#0 183755697#1 183755697#2 183755697#3 183755697#4 183755697#5 183755697#6 183755697#7 183755697#8 183755697#9 183755697#10 183755697#11 183755697#12 183755697#13 183755697#14 35846723#0 35846723#1 35846723#2 35846723#3 35846723#4 35846723#5 35846723#6 35846723#7 35846723#8 35846723#9 35846723#10 357794342#0 357794342#1 357794342#2 357794342#3 357794342#4 357794342#5 357794342#6 357794342#7 357794342#9 357794342#10 357794342#11 294891020 357424601#0 357424601#2 35833467 190816343#0 190816343#1 35833458 35836987#0 35836987#1 35836987#2 35836987#3 61338753#0 550682304 61338752#0 61338752#1 61338752#2 61338752#3 61338752#4 61338752#5 61338752#6 61338752#7 61338752#8 61338752#9 359277423 359277424 35801162#0 140810000#0 140810000#1 336723704#1 336723704#2 136123189#0 136123189#1 136123189#2 136123189#3"/>
    </vehicle>
    <vehicle id="23" depart="23.00">
        <route edges="136123195#3 136123195#4 136123195#5 -1188604797#7 -1188604797#5 -1188604797#4 -1188604797#2 -1188604797#0 -136123198#2 -136123198#1 -136123198#0 1202745915 35837058#0 35837058#1 35837058#2 35837058#3 35837058#4 35837058#5 35837058#6 -568949371 -256721126 -36068301#4 -36068301#3 -36068301#2 -36068301#1 -36068301#0 35801165#0 35801165#1 359280356 357759082 359277423 35833591#0 35833591#1 35833591#2 35833591#3 35833591#4 35833591#5 359277422#0 359277422#1 359277407#0 359277407#1 359277407#2 359277407#3 359277408 348881791#0 348881791#1 35842037#0 183755702#0 183755702#1 183755702#2 27131330#0 27131330#1 27131330#2 27131330#4 27131330#5 585639678#0 585639678#1 585639678#2 183818550#0 183818550#1 281801890 183818552 183743628 -29400961#0 28732314 243296855-AddedOnRampEdge 243296855 243296855-AddedOffRampEdge 23387818 1196027087 399855371#1 399855376#0 399855376#1 399855376#2 183735289#6 1442008523 183735289#0 183735289#1 938364716#0 938364716#1 938364716#2 -566341295#2"/>
    </vehicle>
    <vehicle id="24" depart="24.00">
        <route edges="112550804#1 112550804#2 -112550804#2 -112550804#1 -112550804#0 -34436912#0 35769669#0 35769669#1 35769669#2 35769669#3 931968434#0 931968434#1 931968436 1205421083 931968432#0 931968432#1 931968432#2 1348707507 571682580#0 571682580#1 75503612 -665676423 -627468528#2 -627468528#0 -571682578 75503608#0 75503603 75503604 23051255#0 23051255#1 23051255#2 23051255#3 23051255#4 770855631 591569083 929226387#0"/>
    </vehicle>
    <vehicle id="25" depart="25.00">
        <route edges="358336252#4 358336252#5 358336252#6 358336252#7 358336252#8 -358336267#1 -358336267#0 -1428106420 -112584753#7 -112584753#6 -112584753#5 -112584753#4 -112584753#3 -112584753#2 -112584753#1 -112584753#0 183856209#3 183856209#4 183856209#5 183856209#6 183856209#7 183856209#8 358306375#0 358306375#1 358306375#2 112587279#0 112587279#1 112587279#2 292203592#18 112587283#0 389744942#0 185036579#2 389744943#0 389744943#1 389744943#2 389744943#3 357759049 389744947#0 389744947#2 389744947#3 389744947#4 389744947#5 389744947#7 35842036#0 35842036#2 35842036#3 76829354#1 358086111#0 205500762 205500761#0 205500761#1 205500758#0 205500758#2 205500758#3 205500758#4 35833578 1188468648#0 1188468648#1 1188468648#2 490605419 490605420 35833582#0 35833582#1 1188604310 1188604309#0 1188604309#1 1188604309#2 1188604309#3 35801162#0 35801162#1 36068299#0 36068299#1 36068301#0 36068301#1 36068301#2 36068301#3 36068301#4 256721126 568949371 143314725#0 143314725#1 143314725#2 1185728254 1185728253 1185725327 1185728252#0 1185728252#1 1185725326 1185728251 1185725340#0 1185725340#1 195493140#0 195493140#2 195493140#3 195493140#4 195493140#5 195493140#7 98837661#0 98837661#1 98837661#2 1191746785 343659445 1191746780#0 1191746780#1 1191747208 1191747275#0 1191747275#1 1191747275#2 344499613 1191748006 1494467056 357794352#0 357794352#1 98847197 98847180#0 360301732 356567238#1 360301715#0 360301727#0 360301727#2 360301722#0 360301718#0 360301718#1 360301716#0 360301716#1 357759120"/>
    </vehicle>
    <vehicle id="26" depart="26.00">