<?xml version="1.0" encoding="UTF-8"?>

<!-- generated on 2026-06-02 21:06:45.381346 by Eclipse SUMO randomTrips.py v1.26.0
<configuration>
    <net-file value="osm.net.xml.gz"/>
    <route-file value="precalculated_routes.rou.xml"/>
    <fringe-factor value="5"/>
    <end value="1800.0"/>
</configuration>
-->

<routes xmlns:xsi="http://www.w3.org/2001/XMLSchema-instance" xsi:noNamespaceSchemaLocation="http://sumo.dlr.de/xsd/routes_file.xsd">
    <trip id="0" depart="0.00" from="358303739#14" to="-1185728055#2"/>
    <trip id="1" depart="1.00" from="112581488#3" to="-75731560"/>
    <trip id="2" depart="2.00" from="360495083#0" to="35855610#8"/>
    <trip id="3" depart="3.00" from="1514052124#0" to="-1188604797#10"/>
    <trip id="4" depart="4.00" from="-567896182#1" to="255764683"/>
    <trip id="5" depart="5.00" from="358336261#0" to="324831043#1"/>
    <trip id="6" depart="6.00" from="45409816#7" to="-112581472#3"/>
    <trip id="7" depart="7.00" from="45409802#5" to="359277407#1"/>
    <trip id="8" depart="8.00" from="1189327493" to="-35856021#1"/>
    <trip id="9" depart="9.00" from="98775360#1" to="1189245458#1"/>
    <trip id="10" depart="10.00" from="-190795915" to="-234932381#0"/>
    <trip id="11" depart="11.00" from="561259977" to="35773043#2"/>
    <trip id="12" depart="12.00" from="45409808#5" to="36069067#2"/>
    <trip id="13" depart="13.00" from="288400811#2" to="98841100#1"/>
    <trip id="14" depart="14.00" from="140695172#1" to="343435975"/>
    <trip id="15" depart="15.00" from="490751090#1" to="35801647"/>
    <trip id="16" depart="16.00" from="35916273" to="-136123198#2"/>
    <trip id="17" depart="17.00" from="-677907460#0" to="112587262#3"/>
    <trip id="18" depart="18.00" from="-183755799#1" to="-88454990#4"/>
    <trip id="19" depart="19.00" from="-28821579#12" to="112584762#5"/>
    <trip id="20" depart="20.00" from="358189141#2" to="135476784#0"/>
    <trip id="21" depart="21.00" from="136123193#1" to="-566339460#0"/>
    <trip id="22" depart="22.00" from="112551148" to="929330851#2"/>
    <trip id="23" depart="23.00" from="358336245#3" to="357759081"/>
    <trip id="24" depart="24.00" from="-36198827#1" to="36068588"/>
    <trip id="25" depart="25.00" from="-36054807#0" to="140695190#8"/>
    <trip id="26" depart="26.00" from="98865114#2" to="35833634#0"/>
    <trip id="27" depart="27.00" from="343435960#1" to="35858479#1"/>
    <trip id="28" depart="28.00" from="537423524#1" to="373214912#3"/>
    <trip id="29" depart="29.00" from="-74486819" to="-1188868089"/>
    <trip id="30" depart="30.00" from="1182191080" to="112581476#6"/>
    <trip id="31" depart="31.00" from="-537978386" to="938383105#0"/>
    <trip id="32" depart="32.00" from="627468924" to="1182395575"/>
    <trip id="33" depart="33.00" from="358350341" to="140990902#8"/>
    <trip id="34" depart="34.00" from="806119681" to="184128372#1"/>
    <trip id="35" depart="35.00" from="111347750#0" to="-98865389"/>
    <trip id="36" depart="36.00" from="343452448" to="112560887#5"/>
    <trip id="37" depart="37.00" from="34436607#0" to="75729716#0"/>
    <trip id="38" depart="38.00" from="141144523#0" to="-677907460#0"/>
    <trip id="39" depart="39.00" from="99017523#1" to="256721120#2"/>
    <trip id="40" depart="40.00" from="-184128412#2" to="-139015371"/>
    <trip id="41" depart="41.00" from="-343432629#0" to="358303734#1"/>
    <trip id="42" depart="42.00" from="374265545#0" to="166301883#0"/>
    <trip id="43" depart="43.00" from="-141882618#6" to="140695208#1"/>
    <trip id="44" depart="44.00" from="98885187" to="288400814"/>
    <trip id="45" depart="45.00" from="98841104#0" to="571682579"/>
    <trip id="46" depart="46.00" from="-112584776" to="360259910"/>
    <trip id="47" depart="47.00" from="35847128#0" to="295024815#1"/>
    <trip id="48" depart="48.00" from="112551145#1" to="35834021"/>
    <trip id="49" depart="49.00" from="-343454359#4" to="183743618#0"/>
    <trip id="50" depart="50.00" from="183856213#1" to="98697066"/>
    <trip id="51" depart="51.00" from="621979906" to="112581447#0"/>
    <trip id="52" depart="52.00" from="23051254#2" to="-36199698#2"/>
    <trip id="53" depart="53.00" from="793626838#4" to="61317483#1"/>
    <trip id="54" depart="54.00" from="112587288#0" to="358336261#1"/>
    <trip id="55" depart="55.00" from="357447394#0" to="-35849092#1"/>
    <trip id="56" depart="56.00" from="36199698#2" to="303115433#0"/>
    <trip id="57" depart="57.00" from="372166382#0" to="290809637#2"/>
    <trip id="58" depart="58.00" from="-1050575800#1" to="1188466587#1"/>
    <trip id="59" depart="59.00" from="-1133100490" to="88454990#1"/>
    <trip id="60" depart="60.00" from="665655887#1" to="503757243#0"/>
    <trip id="61" depart="61.00" from="113609400#2" to="-141433500#0"/>
    <trip id="62" depart="62.00" from="664401176" to="98696980"/>
    <trip id="63" depart="63.00" from="-151160437#1" to="372003440#1"/>
    <trip id="64" depart="64.00" from="36202263#3" to="-348839153#0"/>
    <trip id="65" depart="65.00" from="190511341#2" to="343432623#2"/>
    <trip id="66" depart="66.00" from="111826597#0" to="61340013#3"/>
    <trip id="67" depart="67.00" from="158785437#6" to="-566360160#0"/>
    <trip id="68" depart="68.00" from="292203592#18" to="36069215"/>
    <trip id="69" depart="69.00" from="-489389751" to="1181990778#2"/>
    <trip id="70" depart="70.00" from="98885180#0" to="35836892#1"/>
    <trip id="71" depart="71.00" from="183743621#0" to="27618319#2"/>
    <trip id="72" depart="72.00" from="-344272652#3" to="-77609185#4"/>
    <trip id="73" depart="73.00" from="1188868188#1" to="34474997#3"/>
    <trip id="74" depart="74.00" from="-75296172#5" to="-713673057#0"/>
    <trip id="75" depart="75.00" from="-158785714#0" to="358306375#0"/>
    <trip id="76" depart="76.00" from="-74486819" to="77609185#3"/>
    <trip id="77" depart="77.00" from="569025634" to="-183743599#2"/>
    <trip id="78" depart="78.00" from="-843049839" to="35845742#6"/>
    <trip id="79" depart="79.00" from="-566339461#6" to="-35769954#3"/>
    <trip id="80" depart="80.00" from="928933210" to="344253504#2"/>
    <trip id="81" depart="81.00" from="184128430#1" to="375220148#0"/>
    <trip id="82" depart="82.00" from="45409812#10" to="-469492071#0"/>
    <trip id="83" depart="83.00" from="-232209242#1" to="183743599#2"/>
    <trip id="84" depart="84.00" from="158785714#3" to="185036579#2"/>
    <trip id="85" depart="85.00" from="36005724#0" to="35854623#3"/>
    <trip id="86" depart="86.00" from="98849686" to="-284413241#0"/>
    <trip id="87" depart="87.00" from="141433497#2" to="1190767712#0"/>
    <trip id="88" depart="88.00" from="-469939364#2" to="183856208#0"/>
    <trip id="89" depart="89.00" from="1513961726" to="112584764#0"/>
    <trip id="90" depart="90.00" from="-98845002" to="835227998"/>
    <trip id="91" depart="91.00" from="183755774#1" to="572495048#1"/>
    <trip id="92" depart="92.00" from="31982114#9" to="-140695196#4"/>
    <trip id="93" depart="93.00" from="991339325#1" to="534129949#2"/>
    <trip id="94" depart="94.00" from="98841093#4" to="853188804#0"/>
    <trip id="95" depart="95.00" from="565103793#6" to="-36054832"/>
    <trip id="96" depart="96.00" from="191454936#1" to="-570390366#0"/>
    <trip id="97" depart="97.00" from="141273743#1" to="-141797717#0"/>
    <trip id="98" depart="98.00" from="140695184#2" to="98849679#1"/>
    <trip id="99" depart="99.00" from="1119333150#0" to="375043051#3"/>
    <trip id="100" depart="100.00" from="98775360#2" to="98885176#9"/>
    <trip id="101" depart="101.00" from="343435924" to="36005985#2"/>
    <trip id="102" depart="102.00" from="-35915738#1" to="112587296#0"/>
    <trip id="103" depart="103.00" from="98841092#1" to="344461912#2"/>
    <trip id="104" depart="104.00" from="294789012#3" to="36200950"/>
    <trip id="105" depart="105.00" from="-140695212#1" to="344499611#0"/>
    <trip id="106" depart="106.00" from="23161462#1" to="567143461#4"/>
    <trip id="107" depart="107.00" from="-359302694" to="98775366#2"/>
    <trip id="108" depart="108.00" from="344502260#0" to="35855523#6"/>
    <trip id="109" depart="109.00" from="-814324504#0" to="-344272641#0"/>
    <trip id="110" depart="110.00" from="75503608#0" to="-98865388#0"/>
    <trip id="111" depart="111.00" from="344499615#2" to="358055207"/>
    <trip id="112" depart="112.00" from="150088976#0" to="344497097#1"/>
    <trip id="113" depart="113.00" from="27617940#0" to="903475346#1"/>
    <trip id="114" depart="114.00" from="-493711337#2" to="36005441#2"/>
    <trip id="115" depart="115.00" from="-853188804#3" to="140993942#1"/>
    <trip id="116" depart="116.00" from="35842047#1" to="112587309#0"/>
    <trip id="117" depart="117.00" from="1182307192#1" to="36203156#1"/>
    <trip id="118" depart="118.00" from="-183735326#0" to="184128361#1"/>
    <trip id="119" depart="119.00" from="-183743578#2" to="-567896182#0"/>
    <trip id="120" depart="120.00" from="1119333150#0" to="896258503#1"/>
    <trip id="121" depart="121.00" from="692874996" to="665434964"/>
    <trip id="122" depart="122.00" from="136123191" to="-35923266#1"/>
    <trip id="123" depart="123.00" from="495813136#2" to="359301170"/>
    <trip id="124" depart="124.00" from="35769871#3" to="98851439"/>
    <trip id="125" depart="125.00" from="35834858#0" to="-112581495#2"/>
    <trip id="126" depart="126.00" from="47058538#2" to="112587308#0"/>
    <trip id="127" depart="127.00" from="35836945#11" to="931968435#1"/>
    <trip id="128" depart="128.00" from="-357786301" to="-343702507#0"/>
    <trip id="129" depart="129.00" from="-297579304" to="343436003#0"/>
    <trip id="130" depart="130.00" from="112581476#0" to="35773225#1"/>
    <trip id="131" depart="131.00" from="359345608" to="-497257427"/>
    <trip id="132" depart="132.00" from="358182791#2" to="112581454#2"/>
    <trip id="133" depart="133.00" from="195493142#1" to="77609185#2"/>
    <trip id="134" depart="134.00" from="557292639#0" to="-190792998"/>
    <trip id="135" depart="135.00" from="158785714#3" to="112584753#2"/>
    <trip id="136" depart="136.00" from="-112560887#0" to="372818263"/>
    <trip id="137" depart="137.00" from="183735326#1" to="-112584753#4"/>
    <trip id="138" depart="138.00" from="-183743599#6" to="71133795#3"/>
    <trip id="139" depart="139.00" from="77609185#3" to="336723704#2"/>
    <trip id="140" depart="140.00" from="497257268#1" to="344477309#3"/>
    <trip id="141" depart="141.00" from="-35837051#3" to="-344502261#2"/>
    <trip id="142" depart="142.00" from="1138257970" to="75731462#4"/>
    <trip id="143" depart="143.00" from="375043051#2" to="571682578"/>
    <trip id="144" depart="144.00" from="760004443" to="-566339461#3"/>
    <trip id="145" depart="145.00" from="-98841100#2" to="-288400374#1"/>
    <trip id="146" depart="146.00" from="372795130#1" to="74486816"/>
    <trip id="147" depart="147.00" from="1421603584" to="358089872"/>
    <trip id="148" depart="148.00" from="-35896101#1" to="88455886#0"/>
    <trip id="149" depart="149.00" from="584516573#4" to="98845027"/>
    <trip id="150" depart="150.00" from="45409834" to="677901924#2"/>
    <trip id="151" depart="151.00" from="-1184836111#11" to="36071762#5"/>
    <trip id="152" depart="152.00" from="1188604309#1" to="88455890#2"/>
    <trip id="153" depart="153.00" from="421816072" to="585639678#1"/>
    <trip id="154" depart="154.00" from="45409834" to="112581474#1"/>
    <trip id="155" depart="155.00" from="373181163#2" to="-343435924"/>
    <trip id="156" depart="156.00" from="61340013#0" to="569548850"/>
    <trip id="157" depart="157.00" from="-60266406#0" to="475661060#1"/>
    <trip id="158" depart="158.00" from="184120579#0" to="1138257980"/>
    <trip id="159" depart="159.00" from="375043045#0" to="-808102750#0"/>
    <trip id="160" depart="160.00" from="-1182193221#2" to="-47058538#1"/>
    <trip id="161" depart="161.00" from="1188468388#3" to="586298332#1"/>
    <trip id="162" depart="162.00" from="98781179#0" to="112584767#2"/>
    <trip id="163" depart="163.00" from="358306371#4" to="141433496"/>
    <trip id="164" depart="164.00" from="98849387#6" to="295024810"/>
    <trip id="165" depart="165.00" from="931968441#0" to="-343697879#0"/>
    <trip id="166" depart="166.00" from="98841099#0" to="-36199698#1"/>
    <trip id="167" depart="167.00" from="98780198#0" to="112581464"/>
    <trip id="168" depart="168.00" from="-339606507#5" to="183743616#3"/>
    <trip id="169" depart="169.00" from="36005472" to="1182360359"/>
    <trip id="170" depart="170.00" from="357171238#3" to="259218552"/>
    <trip id="171" depart="171.00" from="-1069162198" to="843067226"/>
    <trip id="172" depart="172.00" from="292167400#1" to="36006218#6"/>
    <trip id="173" depart="173.00" from="36056849#0" to="35849092#0"/>
    <trip id="174" depart="174.00" from="135476529#3" to="-183743589#1"/>
    <trip id="175" depart="175.00" from="35836945#7" to="1188604797#11"/>
    <trip id="176" depart="176.00" from="1181951485" to="566339460#0"/>
    <trip id="177" depart="177.00" from="359507070#2" to="112587310#1"/>
    <trip id="178" depart="178.00" from="1138257977#1" to="1450812433#0"/>
    <trip id="179" depart="179.00" from="141433493#1" to="112587293#2"/>
    <trip id="180" depart="180.00" from="77609181#0" to="35782159#0"/>
    <trip id="181" depart="181.00" from="112587296#3" to="339940215"/>
    <trip id="182" depart="182.00" from="-1050575798#2" to="112587257#10"/>
    <trip id="183" depart="183.00" from="183743578#3" to="344461927#1"/>
    <trip id="184" depart="184.00" from="35834866#6" to="184128423#1"/>
    <trip id="185" depart="185.00" from="183755704#2" to="-569696690"/>
    <trip id="186" depart="186.00" from="375043051#1" to="-36068301#0"/>
    <trip id="187" depart="187.00" from="-183856306#4" to="27611567#3"/>
    <trip id="188" depart="188.00" from="358168650#1" to="1188868089"/>
    <trip id="189" depart="189.00" from="473566395" to="36202494#0"/>
    <trip id="190" depart="190.00" from="35842065" to="-77609185#3"/>
    <trip id="191" depart="191.00" from="-486151104#0" to="-1185727714"/>
    <trip id="192" depart="192.00" from="-977976261" to="190816355"/>
    <trip id="193" depart="193.00" from="565353157" to="-183743612#0"/>
    <trip id="194" depart="194.00" from="146273146#6" to="358306371#10"/>
    <trip id="195" depart="195.00" from="-474199294#0" to="35923434#0"/>
    <trip id="196" depart="196.00" from="205500763" to="-98849386#0"/>
    <trip id="197" depart="197.00" from="35835275#1" to="-112581462#0"/>
    <trip id="198" depart="198.00" from="36071762#4" to="372801908#3"/>
    <trip id="199" depart="199.00" from="-295024817" to="183743574#1"/>
    <trip id="200" depart="200.00" from="-370879510" to="98726589#2"/>
    <trip id="201" depart="201.00" from="259218556#0" to="-140695190#9"/>
    <trip id="202" depart="202.00" from="-98841096#0" to="566339461#10"/>
    <trip id="203" depart="203.00" from="183856323#0" to="467257795#6"/>
    <trip id="204" depart="204.00" from="35837051#3" to="98858474#1"/>
    <trip id="205" depart="205.00" from="344502261#3" to="98697025#3"/>
    <trip id="206" depart="206.00" from="75635997#0" to="357794339#2"/>
    <trip id="207" depart="207.00" from="359365612#0" to="243296855"/>
    <trip id="208" depart="208.00" from="493711337#0" to="339940215"/>
    <trip id="209" depart="209.00" from="75731462#0" to="361215508#2"/>
    <trip id="210" depart="210.00" from="190429166#6" to="111826597#0"/>
    <trip id="211" depart="211.00" from="-98705821" to="358336252#2"/>
    <trip id="212" depart="212.00" from="36202263#3" to="287995291#3"/>
    <trip id="213" depart="213.00" from="35782159#5" to="112582362#4"/>
    <trip id="214" depart="214.00" from="-183743612#3" to="112587253#2"/>
    <trip id="215" depart="215.00" from="112581473" to="1185727439"/>
    <trip id="216" depart="216.00" from="292203592#5" to="-358306370"/>
    <trip id="217" depart="217.00" from="-75729902#7" to="35923003#4"/>
    <trip id="218" depart="218.00" from="35923003#3" to="-150088950#0"/>
    <trip id="219" depart="219.00" from="1428689972#0" to="315765582"/>
    <trip id="220" depart="220.00" from="146273152#4" to="-536385784#5"/>
    <trip id="221" depart="221.00" from="1511332838#1" to="77609184#2"/>
    <trip id="222" depart="222.00" from="34436316#1" to="35923383#1"/>
    <trip id="223" depart="223.00" from="567160922#1" to="372166382#0"/>
    <trip id="224" depart="224.00" from="140695190#1" to="-112581467"/>
    <trip id="225" depart="225.00" from="1196399866#1" to="36226521"/>
    <trip id="226" depart="226.00" from="150088950#4" to="36200123#0"/>
    <trip id="227" depart="227.00" from="306093018" to="35772850#0"/>
    <trip id="228" depart="228.00" from="-570390366#1" to="-677907460#1"/>
    <trip id="229" depart="229.00" from="183743609#1" to="-1188491984#1"/>
    <trip id="230" depart="230.00" from="1188811349" to="35855774#1"/>
    <trip id="231" depart="231.00" from="141797717#0" to="-36006218#3"/>
    <trip id="232" depart="232.00" from="184128410#0" to="-344654798#0"/>
    <trip id="233" depart="233.00" from="35779186#0" to="-1188465825#1"/>
    <trip id="234" depart="234.00" from="140990879" to="343670535#0"/>
    <trip id="235" depart="235.00" from="-1185727439" to="35834866#3"/>
    <trip id="236" depart="236.00" from="-358168650#0" to="184128408"/>
    <trip id="237" depart="237.00" from="-135476784#1" to="140695190#3"/>
    <trip id="238" depart="238.00" from="-557404605#1" to="1188468830#2"/>
    <trip id="239" depart="239.00" from="36199386#0" to="140695190#4"/>
    <trip id="240" depart="240.00" from="36071801#1" to="503757243#3"/>
    <trip id="241" depart="241.00" from="-1133100489#1" to="303115433#1"/>
    <trip id="242" depart="242.00" from="993870463" to="1196399869#2"/>
    <trip id="243" depart="243.00" from="358336263#1" to="374530223#1"/>
    <trip id="244" depart="244.00" from="35833680#7" to="36226821#1"/>
    <trip id="245" depart="245.00" from="98697025#2" to="-490480274#0"/>
    <trip id="246" depart="246.00" from="-1153422818#3" to="-35842865#0"/>
    <trip id="247" depart="247.00" from="-344502261#1" to="35846723#10"/>
    <trip id="248" depart="248.00" from="343465972" to="-627468924"/>
    <trip id="249" depart="249.00" from="35901888#3" to="372795135"/>
    <trip id="250" depart="250.00" from="-36080507" to="357759052#0"/>
    <trip id="251" depart="251.00" from="36071522#3" to="-343697877"/>
    <trip id="252" depart="252.00" from="474199291#0" to="98779194#5"/>
    <trip id="253" depart="253.00" from="-339606507#1" to="-1186610080#0"/>
    <trip id="254" depart="254.00" from="1153422818#2" to="35855719#5"/>
    <trip id="255" depart="255.00" from="98775365#8" to="141144527#0"/>
    <trip id="256" depart="256.00" from="359284802" to="-183755841#1"/>
    <trip id="257" depart="257.00" from="35855774#1" to="358303729"/>
    <trip id="258" depart="258.00" from="-288400355#2" to="372818280"/>
    <trip id="259" depart="259.00" from="566141118#0" to="35769871#5"/>
    <trip id="260" depart="260.00" from="372800318#1" to="1191759578"/>
    <trip id="261" depart="261.00" from="183743569#1" to="136123199#1"/>
    <trip id="262" depart="262.00" from="233200069" to="1190852978#6"/>
    <trip id="263" depart="263.00" from="565149705" to="489783650"/>
    <trip id="264" depart="264.00" from="-295024810" to="98775366#2"/>
    <trip id="265" depart="265.00" from="358189141#0" to="495685788#1"/>
    <trip id="266" depart="266.00" from="35923362#2" to="183743627#1"/>
    <trip id="267" depart="267.00" from="360300690" to="98780203#2"/>
    <trip id="268" depart="268.00" from="112581459#2" to="47058538#0"/>
    <trip id="269" depart="269.00" from="290809638#0" to="195493142#5"/>
    <trip id="270" depart="270.00" from="183743602#1" to="360701254"/>
    <trip id="271" depart="271.00" from="112560888#1" to="567143460#2"/>
    <trip id="272" depart="272.00" from="493711337#2" to="-184128388#0"/>
    <trip id="273" depart="273.00" from="70930782" to="-98849375#2"/>
    <trip id="274" depart="274.00" from="184128388#0" to="35777715#1"/>
    <trip id="275" depart="275.00" from="140695184#2" to="-1188468830#7"/>
    <trip id="276" depart="276.00" from="566145813#0" to="-373181163#4"/>
    <trip id="277" depart="277.00" from="-561259974#0" to="45409821#2"/>
    <trip id="278" depart="278.00" from="1189807227" to="665676423"/>
    <trip id="279" depart="279.00" from="35902785#0" to="112584750"/>
    <trip id="280" depart="280.00" from="-112584753#7" to="98697007#0"/>
    <trip id="281" depart="281.00" from="-184117249#0" to="360259905#2"/>
    <trip id="282" depart="282.00" from="195493142#1" to="368289745"/>
    <trip id="283" depart="283.00" from="35855774#1" to="35835339#3"/>
    <trip id="284" depart="284.00" from="-190816346#0" to="-75296172#5"/>
    <trip id="285" depart="285.00" from="35855872#0" to="1144537237"/>
    <trip id="286" depart="286.00" from="344272646#1" to="190796497#0"/>
    <trip id="287" depart="287.00" from="28821343#7" to="183743575#1"/>
    <trip id="288" depart="288.00" from="36071029#1" to="1188606187"/>
    <trip id="289" depart="289.00" from="35915952#2" to="112581489#5"/>
    <trip id="290" depart="290.00" from="-98848999#0" to="-344272651"/>
    <trip id="291" depart="291.00" from="-473022567#1" to="-344272636#2"/>
    <trip id="292" depart="292.00" from="288400374#4" to="372012892#2"/>
    <trip id="293" depart="293.00" from="-454574868" to="-60441230#1"/>
    <trip id="294" depart="294.00" from="191454922#1" to="36054789#0"/>
    <trip id="295" depart="295.00" from="98847201#1" to="28821579#9"/>
    <trip id="296" depart="296.00" from="112584765" to="-28821579#1"/>
    <trip id="297" depart="297.00" from="-474199291#2" to="-808102750#0"/>
    <trip id="298" depart="298.00" from="-374251641#0" to="-112587288#0"/>
    <trip id="299" depart="299.00" from="288400363#4" to="112582362#0"/>
    <trip id="300" depart="300.00" from="98847180#0" to="343436003#2"/>
    <trip id="301" depart="301.00" from="35859110" to="-344469682#0"/>
    <trip id="302" depart="302.00" from="60769712#6" to="213800241#5"/>
    <trip id="303" depart="303.00" from="61340013#7" to="344272648#7"/>
    <trip id="304" depart="304.00" from="184128415#1" to="183755774#1"/>
    <trip id="305" depart="305.00" from="-45409827#1" to="-140695212#0"/>
    <trip id="306" depart="306.00" from="934005397" to="191454921#1"/>
    <trip id="307" depart="307.00" from="474221179#1" to="1416545538"/>
    <trip id="308" depart="308.00" from="-183743589#2" to="358306367#4"/>
    <trip id="309" depart="309.00" from="-140695184#1" to="-35837051#0"/>
    <trip id="310" depart="310.00" from="343465962#3" to="113431926#1"/>
    <trip id="311" depart="311.00" from="98884184" to="-344253498"/>
    <trip id="312" depart="312.00" from="36201551#0" to="357759042#2"/>
    <trip id="313" depart="313.00" from="374251634#1" to="-779332643#1"/>
    <trip id="314" depart="314.00" from="27617819#3" to="183856248#1"/>
    <trip id="315" depart="315.00" from="183755706#1" to="571376992"/>
    <trip id="316" depart="316.00" from="98865377#1" to="1138258011"/>
    <trip id="317" depart="317.00" from="35777690#4" to="357759120"/>
    <trip id="318" depart="318.00" from="36054979#0" to="98696994"/>
    <trip id="319" depart="319.00" from="-529732518#0" to="-566341293"/>
    <trip id="320" depart="320.00" from="35836803#5" to="-35915952#0"/>
    <trip id="321" depart="321.00" from="-36202263#4" to="-183755704#6"/>
    <trip id="322" depart="322.00" from="-112550804#2" to="183856248#1"/>
    <trip id="323" depart="323.00" from="344499611#1" to="112587274#1"/>
    <trip id="324" depart="324.00" from="-766243192#0" to="359507070#7"/>
    <trip id="325" depart="325.00" from="35855610#1" to="838127293#4"/>
    <trip id="326" depart="326.00" from="373181164#2" to="358195689#1"/>
    <trip id="327" depart="327.00" from="35836892#1" to="896560377#2"/>
    <trip id="328" depart="328.00" from="176397865#0" to="323694379#4"/>
    <trip id="329" depart="329.00" from="358336244#3" to="77727774#0"/>
    <trip id="330" depart="330.00" from="489805564" to="-183743599#9"/>
    <trip id="331" depart="331.00" from="-36070190#2" to="1153422818#1"/>
    <trip id="332" depart="332.00" from="36071655#0" to="344221494#2"/>
    <trip id="333" depart="333.00" from="112587250#0" to="-344461931"/>
    <trip id="334" depart="334.00" from="35855719#3" to="359277416#4"/>
    <trip id="335" depart="335.00" from="95098873" to="23387816"/>
    <trip id="336" depart="336.00" from="205500758#2" to="-183856209#8"/>
    <trip id="337" depart="337.00" from="-1191752152#1" to="183743602#1"/>
    <trip id="338" depart="338.00" from="-184128419#1" to="98779158#0"/>
    <trip id="339" depart="339.00" from="50549126#1" to="344279537#1"/>
    <trip id="340" depart="340.00" from="98697041" to="992559103"/>
    <trip id="341" depart="341.00" from="35842054#1" to="112581487#2"/>
    <trip id="342" depart="342.00" from="-1191759577" to="36227206#8"/>
    <trip id="343" depart="343.00" from="184128423#0" to="35836945#1"/>
    <trip id="344" depart="344.00" from="808109605" to="-373181163#0"/>
    <trip id="345" depart="345.00" from="34436905#4" to="35833591#5"/>
    <trip id="346" depart="346.00" from="196462918#1" to="-184128427#1"/>
    <trip id="347" depart="347.00" from="1191748006" to="1188701169"/>
    <trip id="348" depart="348.00" from="35842039#5" to="569027288"/>
    <trip id="349" depart="349.00" from="1188468830#3" to="35923003#0"/>
    <trip id="350" depart="350.00" from="112585168#1" to="963183796"/>
    <trip id="351" depart="351.00" from="469492071#3" to="343432628#2"/>
    <trip id="352" depart="352.00" from="183856242" to="1182367420"/>
    <trip id="353" depart="353.00" from="1185727975#1" to="98837660#0"/>
    <trip id="354" depart="354.00" from="141797717#0" to="27594166#3"/>
    <trip id="355" depart="355.00" from="98865109" to="35837087#1"/>
    <trip id="356" depart="356.00" from="294891022#0" to="146544718#1"/>
    <trip id="357" depart="357.00" from="360893038#0" to="35824729#1"/>
    <trip id="358" depart="358.00" from="36198924#4" to="-497257155#1"/>
    <trip id="359" depart="359.00" from="31509634" to="861016945#1"/>
    <trip id="360" depart="360.00" from="183743621#0" to="359277407#2"/>
    <trip id="361" depart="361.00" from="-344279539#1" to="98841100#1"/>
    <trip id="362" depart="362.00" from="357432611" to="-98747941#0"/>
    <trip id="363" depart="363.00" from="-35977780#1" to="343435958#0"/>
    <trip id="364" depart="364.00" from="339606507#2" to="-191454912#1"/>
    <trip id="365" depart="365.00" from="98870443#0" to="793599633#2"/>
    <trip id="366" depart="366.00" from="184128352#4" to="-344221496#1"/>
    <trip id="367" depart="367.00" from="494876492#0" to="23162024#2"/>
    <trip id="368" depart="368.00" from="359302694" to="256705712#4"/>
    <trip id="369" depart="369.00" from="112581482#0" to="529948056"/>
    <trip id="370" depart="370.00" from="98849383" to="-98849375#1"/>
    <trip id="371" depart="371.00" from="324831043#0" to="140695224#1"/>
    <trip id="372" depart="372.00" from="832977699#1" to="256702685#0"/>
    <trip id="373" depart="373.00" from="666988933#0" to="585639678#0"/>
    <trip id="374" depart="374.00" from="112581492#0" to="421813782#0"/>
    <trip id="375" depart="375.00" from="146273148#4" to="903188502"/>
    <trip id="376" depart="376.00" from="234785643#1" to="488217967"/>
    <trip id="377" depart="377.00" from="112584764#2" to="112587303#2"/>
    <trip id="378" depart="378.00" from="344461912#3" to="99017558#1"/>
    <trip id="379" depart="379.00" from="195495861#1" to="-35836960#5"/>
    <trip id="380" depart="380.00" from="292203592#1" to="1191747275#0"/>
    <trip id="381" depart="381.00" from="336723704#1" to="31982114#8"/>
    <trip id="382" depart="382.00" from="-469790056#1" to="359277406#3"/>
    <trip id="383" depart="383.00" from="343670535#0" to="-88455917#2"/>
    <trip id="384" depart="384.00" from="372012892#0" to="-1325603293#1"/>
    <trip id="385" depart="385.00" from="36069217#2" to="359345618"/>
    <trip id="386" depart="386.00" from="45409837#1" to="140695249#1"/>
    <trip id="387" depart="387.00" from="35836945#15" to="488299164"/>
    <trip id="388" depart="388.00" from="98849387#2" to="23051254#3"/>
    <trip id="389" depart="389.00" from="-1190852978#2" to="234932378#1"/>
    <trip id="390" depart="390.00" from="344461981#2" to="61279128#1"/>
    <trip id="391" depart="391.00" from="61414279#0" to="183755772#1"/>
    <trip id="392" depart="392.00" from="282030207#0" to="184128352#4"/>
    <trip id="393" depart="393.00" from="359511078#1" to="146273143#0"/>
    <trip id="394" depart="394.00" from="35834866#6" to="-35855776#0"/>
    <trip id="395" depart="395.00" from="184128415#2" to="98781175#1"/>
    <trip id="396" depart="396.00" from="1188871898#1" to="35916429#1"/>
    <trip id="397" depart="397.00" from="358336259#1" to="567143460#2"/>
    <trip id="398" depart="398.00" from="566339461#9" to="569696688"/>
    <trip id="399" depart="399.00" from="140695188#2" to="1184836111#7"/>
    <trip id="400" depart="400.00" from="359365601#1" to="370825564#2"/>
    <trip id="401" depart="401.00" from="61340013#3" to="-1191752152#2"/>
    <trip id="402" depart="402.00" from="-1511332838#1" to="358306375#1"/>
    <trip id="403" depart="403.00" from="831698014#7" to="99017523#0"/>
    <trip id="404" depart="404.00" from="36071446" to="183743612#5"/>
    <trip id="405" depart="405.00" from="-277000197#0" to="35833523#0"/>
    <trip id="406" depart="406.00" from="61340013#5" to="183755799#3"/>
    <trip id="407" depart="407.00" from="35856364#3" to="77609177"/>
    <trip id="408" depart="408.00" from="-1301453109" to="45409812#8"/>
    <trip id="409" depart="409.00" from="112587264#0" to="139317370"/>
    <trip id="410" depart="410.00" from="-35836945#2" to="292203592#13"/>
    <trip id="411" depart="411.00" from="343465998" to="449567139#2"/>