<?xml version="1.0" encoding="UTF-8"?>

<!-- generated on 2026-06-02 17:33:36.437082 by Eclipse SUMO randomTrips.py v1.26.0
<configuration>
    <net-file value="osm.net.xml.gz"/>
    <route-file value="precalculated_routes.rou.xml"/>
    <fringe-factor value="5"/>
    <end value="1800.0"/>
</configuration>
-->

<routes xmlns:xsi="http://www.w3.org/2001/XMLSchema-instance" xsi:noNamespaceSchemaLocation="http://sumo.dlr.de/xsd/routes_file.xsd">
    <trip id="0" depart="0.00" from="358303740" to="-1185728251"/>
    <trip id="1" depart="1.00" from="36054912" to="35855719#1"/>
    <trip id="2" depart="2.00" from="164422409#0" to="-1188604797#12"/>
    <trip id="3" depart="3.00" from="-567143460#2" to="256589578#5"/>
    <trip id="4" depart="4.00" from="-1185727437#0" to="-490751090#0"/>
    <trip id="5" depart="5.00" from="358336267#0" to="339606508"/>
    <trip id="6" depart="6.00" from="-567896182#1" to="348595589#4"/>
    <trip id="7" depart="7.00" from="45409823#1" to="-112581472#0"/>
    <trip id="8" depart="8.00" from="45409808#1" to="359277407#2"/>
    <trip id="9" depart="9.00" from="1189941497#0" to="-35896101#0"/>
    <trip id="10" depart="10.00" from="98775360#1" to="1190767897#1"/>
    <trip id="11" depart="11.00" from="-191382434" to="-255925785#2"/>
    <trip id="12" depart="12.00" from="561259977" to="35773154"/>
    <trip id="13" depart="13.00" from="45409812#13" to="36068301#1"/>
    <trip id="14" depart="14.00" from="288400815#1" to="98841101"/>
    <trip id="15" depart="15.00" from="140695185#3" to="343436002#2"/>
    <trip id="16" depart="16.00" from="493711337#0" to="35801536#1"/>
    <trip id="17" depart="17.00" from="571682577#1" to="344461907#2"/>
    <trip id="18" depart="18.00" from="35923003#3" to="-136123199#2"/>
    <trip id="19" depart="19.00" from="-664401176" to="112587272#2"/>
    <trip id="20" depart="20.00" from="-183755841#0" to="-88499635"/>
    <trip id="21" depart="21.00" from="-28821579#10" to="112584768#2"/>
    <trip id="22" depart="22.00" from="358195686#1" to="136123189#3"/>
    <trip id="23" depart="23.00" from="136123195#3" to="-566341295#2"/>
    <trip id="24" depart="24.00" from="112550804#1" to="929226387#0"/>
    <trip id="25" depart="25.00" from="358336252#4" to="357759120"/>
    <trip id="26" depart="26.00" from="-36111779#1" to="36056617"/>
    <trip id="27" depart="27.00" from="-36006218#6" to="140695212#2"/>
    <trip id="28" depart="28.00" from="98865377#1" to="358336265#6"/>
    <trip id="29" depart="29.00" from="343435960#1" to="35860548#1"/>
    <trip id="30" depart="30.00" from="541911024" to="373208223#1"/>
    <trip id="31" depart="31.00" from="-677901924#6" to="-1188868188#1"/>
    <trip id="32" depart="32.00" from="1182191080" to="112581484#1"/>
    <trip id="33" depart="33.00" from="-534129949#0" to="938359657"/>
    <trip id="34" depart="34.00" from="627468528#1" to="1185333714"/>
    <trip id="35" depart="35.00" from="35835275#5" to="141433492#2"/>
    <trip id="36" depart="36.00" from="804931848" to="184128413#1"/>
    <trip id="37" depart="37.00" from="1102524192#0" to="-98884186#1"/>
    <trip id="38" depart="38.00" from="343452437" to="112581454#1"/>
    <trip id="39" depart="39.00" from="34436515#1" to="75654018#1"/>
    <trip id="40" depart="40.00" from="141273738" to="-713673057#0"/>
    <trip id="41" depart="41.00" from="99017526#0" to="259218556#1"/>
    <trip id="42" depart="42.00" from="-184128427#0" to="-139015371"/>
    <trip id="43" depart="43.00" from="-339940215" to="358301694#0"/>
    <trip id="44" depart="44.00" from="374275221" to="183743575#2"/>
    <trip id="45" depart="45.00" from="-1428110815#0" to="140695228#5"/>
    <trip id="46" depart="46.00" from="989194622#0" to="292203592#10"/>
    <trip id="47" depart="47.00" from="98844994" to="570750243"/>
    <trip id="48" depart="48.00" from="-112584777#0" to="360259911"/>
    <trip id="49" depart="49.00" from="35851375#6" to="30098105#3"/>
    <trip id="50" depart="50.00" from="1121712447" to="35833680#6"/>
    <trip id="51" depart="51.00" from="-343452442" to="183755698"/>
    <trip id="52" depart="52.00" from="183856274" to="98697060#0"/>
    <trip id="53" depart="53.00" from="621979905" to="112581457#4"/>
    <trip id="54" depart="54.00" from="23161457#0" to="-368199634#0"/>
    <trip id="55" depart="55.00" from="793626838#0" to="61293007#0"/>
    <trip id="56" depart="56.00" from="112587288#0" to="358336254#5"/>
    <trip id="57" depart="57.00" from="357476509" to="-35855523#3"/>
    <trip id="58" depart="58.00" from="36201551#0" to="31362266"/>
    <trip id="59" depart="59.00" from="372795130#1" to="292203592#25"/>
    <trip id="60" depart="60.00" from="-1050575800#1" to="1188468830#5"/>
    <trip id="61" depart="61.00" from="-113431926#1" to="875483720"/>
    <trip id="62" depart="62.00" from="665655887#0" to="497257427"/>
    <trip id="63" depart="63.00" from="113609400#2" to="-141433511"/>
    <trip id="64" depart="64.00" from="663370071#0" to="972271994"/>
    <trip id="65" depart="65.00" from="-184120578#2" to="205500764"/>
    <trip id="66" depart="66.00" from="-151160437#1" to="370879510#0"/>
    <trip id="67" depart="67.00" from="36226521" to="-348839738#2"/>
    <trip id="68" depart="68.00" from="190778989#1" to="343435958#2"/>
    <trip id="69" depart="69.00" from="166301883#1" to="-569025628"/>
    <trip id="70" depart="70.00" from="292203592#21" to="36068301#4"/>
    <trip id="71" depart="71.00" from="-481003545#1" to="1182365099#0"/>
    <trip id="72" depart="72.00" from="98885182#3" to="35836890#3"/>
    <trip id="73" depart="73.00" from="183755697#10" to="284760247#4"/>
    <trip id="74" depart="74.00" from="-344272651" to="-779332643#0"/>
    <trip id="75" depart="75.00" from="-164426874#1" to="358306371#8"/>
    <trip id="76" depart="76.00" from="-677901924#5" to="77609185#1"/>
    <trip id="77" depart="77.00" from="569027290" to="-183743609#0"/>
    <trip id="78" depart="78.00" from="-561259974#0" to="-35772696"/>
    <trip id="79" depart="79.00" from="929226387#1" to="344272639#2"/>
    <trip id="80" depart="80.00" from="190429166#2" to="375220148#0"/>
    <trip id="81" depart="81.00" from="45409812#8" to="-469790056#0"/>
    <trip id="82" depart="82.00" from="-232209242#6" to="183743617"/>
    <trip id="83" depart="83.00" from="176405153" to="190785478#4"/>
    <trip id="84" depart="84.00" from="36006148#1" to="35854623#6"/>
    <trip id="85" depart="85.00" from="98849688#0" to="-287995294#2"/>
    <trip id="86" depart="86.00" from="141797717#0" to="1191452144#1"/>
    <trip id="87" depart="87.00" from="571682577#0" to="-991339325#0"/>
    <trip id="88" depart="88.00" from="-469698599#2" to="183856323#0"/>
    <trip id="89" depart="89.00" from="164422409#0" to="112584769#4"/>
    <trip id="90" depart="90.00" from="-98837660#1" to="833520057"/>
    <trip id="91" depart="91.00" from="183755786#14" to="571682577#0"/>
    <trip id="92" depart="92.00" from="992026845" to="531995517#1"/>
    <trip id="93" depart="93.00" from="98841093#6" to="845388568"/>
    <trip id="94" depart="94.00" from="565103793#3" to="-36054979#0"/>
    <trip id="95" depart="95.00" from="191988975" to="-585610407#3"/>
    <trip id="96" depart="96.00" from="141433493#2" to="-141882618#0"/>
    <trip id="97" depart="97.00" from="140695188#2" to="98849683#1"/>
    <trip id="98" depart="98.00" from="1102524193#0" to="375043051#3"/>
    <trip id="99" depart="99.00" from="183856323#3" to="183743579"/>
    <trip id="100" depart="100.00" from="98775360#2" to="98885176#9"/>
    <trip id="101" depart="101.00" from="343435932" to="36006122#1"/>
    <trip id="102" depart="102.00" from="-35857476#1" to="112587303#1"/>
    <trip id="103" depart="103.00" from="98841093#3" to="344461952#2"/>
    <trip id="104" depart="104.00" from="294891022#0" to="36199697#2"/>
    <trip id="105" depart="105.00" from="-140695212#2" to="344502261#3"/>
    <trip id="106" depart="106.00" from="23162026#4" to="567143460#2"/>
    <trip id="107" depart="107.00" from="-359280339#0" to="98775366#1"/>
    <trip id="108" depart="108.00" from="344502260#0" to="35855570#0"/>
    <trip id="109" depart="109.00" from="-805491278" to="-344272649#3"/>
    <trip id="110" depart="110.00" from="75503603" to="-98876202#0"/>
    <trip id="111" depart="111.00" from="344499615#2" to="358055191#0"/>
    <trip id="112" depart="112.00" from="151152812#0" to="344502259#1"/>
    <trip id="113" depart="113.00" from="27617970#7" to="903188502"/>
    <trip id="114" depart="114.00" from="-489389753" to="36005472"/>
    <trip id="115" depart="115.00" from="-833824317" to="141433492#4"/>
    <trip id="116" depart="116.00" from="35842065" to="1132438704"/>
    <trip id="117" depart="117.00" from="1182360358" to="36202395"/>
    <trip id="118" depart="118.00" from="-183743569#1" to="184128411#1"/>
    <trip id="119" depart="119.00" from="990275543" to="98885182#6"/>
    <trip id="120" depart="120.00" from="-183743585#1" to="-572495053"/>
    <trip id="121" depart="121.00" from="1102524193#0" to="890126841#1"/>
    <trip id="122" depart="122.00" from="692874996" to="665655887#0"/>
    <trip id="123" depart="123.00" from="136123194#1" to="-359280343#4"/>
    <trip id="124" depart="124.00" from="497257268#6" to="359301166"/>
    <trip id="125" depart="125.00" from="35769954#4" to="98851463#1"/>
    <trip id="126" depart="126.00" from="35834866#8" to="-112581492#1"/>
    <trip id="127" depart="127.00" from="471847084" to="112587995#0"/>
    <trip id="128" depart="128.00" from="35836945#8" to="931968433#0"/>
    <trip id="129" depart="129.00" from="-35777690#4" to="-343702507#6"/>
    <trip id="130" depart="130.00" from="112581472#4" to="357734828#5"/>
    <trip id="131" depart="131.00" from="359507070#4" to="-533820151#0"/>
    <trip id="132" depart="132.00" from="358189132#1" to="112581460#1"/>
    <trip id="133" depart="133.00" from="195495861#2" to="77609185#0"/>
    <trip id="134" depart="134.00" from="556769983" to="-191454921#0"/>
    <trip id="135" depart="135.00" from="176405153" to="112584762#7"/>
    <trip id="136" depart="136.00" from="-112560887#1" to="372818253#3"/>
    <trip id="137" depart="137.00" from="358301682#1" to="112560888#3"/>
    <trip id="138" depart="138.00" from="36068299#0" to="343435994#4"/>
    <trip id="139" depart="139.00" from="183743576#1" to="-112584753#2"/>
    <trip id="140" depart="140.00" from="-183743601#1" to="71133795#3"/>
    <trip id="141" depart="141.00" from="77609184#1" to="339785748"/>
    <trip id="142" depart="142.00" from="503757243#4" to="344499611#1"/>
    <trip id="143" depart="143.00" from="1138257965#2" to="75731462#0"/>
    <trip id="144" depart="144.00" from="37995353#1" to="570390366#1"/>
    <trip id="145" depart="145.00" from="759580340#0" to="-566360160#0"/>
    <trip id="146" depart="146.00" from="372795150#1" to="730169261#1"/>
    <trip id="147" depart="147.00" from="1430514835" to="358086113#3"/>
    <trip id="148" depart="148.00" from="-35855776#4" to="88454990#4"/>
    <trip id="149" depart="149.00" from="584520468" to="98847180#0"/>
    <trip id="150" depart="150.00" from="45409837#2" to="677901924#5"/>
    <trip id="151" depart="151.00" from="-1184836111#6" to="36071688#7"/>
    <trip id="152" depart="152.00" from="1188604310" to="88455886#5"/>
    <trip id="153" depart="153.00" from="436981383#0" to="584516573#3"/>
    <trip id="154" depart="154.00" from="45409837#2" to="112581480#0"/>
    <trip id="155" depart="155.00" from="373208226" to="-343435958#0"/>
    <trip id="156" depart="156.00" from="61338754#2" to="569027290"/>
    <trip id="157" depart="157.00" from="-571454639#0" to="475661084#0"/>
    <trip id="158" depart="158.00" from="184128356#0" to="1153422817#3"/>
    <trip id="159" depart="159.00" from="375050862#1" to="-808109605"/>
    <trip id="160" depart="160.00" from="-1182360358" to="-473562521"/>
    <trip id="161" depart="161.00" from="1188468614" to="584520468"/>
    <trip id="162" depart="162.00" from="358306373#4" to="1421603586#1"/>
    <trip id="163" depart="163.00" from="98849389" to="297579304"/>
    <trip id="164" depart="164.00" from="931968442#0" to="-343702507#4"/>
    <trip id="165" depart="165.00" from="98780198#1" to="112581474#0"/>
    <trip id="166" depart="166.00" from="-336723704#2" to="183755697#8"/>
    <trip id="167" depart="167.00" from="36006122#0" to="1184836111#10"/>
    <trip id="168" depart="168.00" from="357188411#0" to="27584109#4"/>
    <trip id="169" depart="169.00" from="-1094556239" to="843049845"/>
    <trip id="170" depart="170.00" from="292203592#11" to="360249806#0"/>
    <trip id="171" depart="171.00" from="36068514#1" to="35850111#0"/>
    <trip id="172" depart="172.00" from="135476543#1" to="-183743599#3"/>
    <trip id="173" depart="173.00" from="35836960#0" to="1188701167"/>
    <trip id="174" depart="174.00" from="1181951485" to="566141629#0"/>
    <trip id="175" depart="175.00" from="359511075" to="1132444887#0"/>
    <trip id="176" depart="176.00" from="1138257977#0" to="146273151#2"/>
    <trip id="177" depart="177.00" from="1416545539" to="112587298#2"/>
    <trip id="178" depart="178.00" from="93279691#1" to="35855719#8"/>
    <trip id="179" depart="179.00" from="77609175" to="357818521#0"/>
    <trip id="180" depart="180.00" from="112587296#1" to="343432614"/>
    <trip id="181" depart="181.00" from="-1050575798#2" to="112587259#1"/>
    <trip id="182" depart="182.00" from="183743585#2" to="344461981#1"/>
    <trip id="183" depart="183.00" from="35835163#0" to="190512481"/>
    <trip id="184" depart="184.00" from="183755782#1" to="-585610407#2"/>
    <trip id="185" depart="185.00" from="190429167#0" to="770855631"/>
    <trip id="186" depart="186.00" from="37995353#0" to="-36071029#5"/>
    <trip id="187" depart="187.00" from="-183856317#1" to="277000202#1"/>
    <trip id="188" depart="188.00" from="358182778#6" to="1189947726#1"/>
    <trip id="189" depart="189.00" from="474199291#0" to="36202212#0"/>
    <trip id="190" depart="190.00" from="35842213" to="-779332641#0"/>
    <trip id="191" depart="191.00" from="-475661060#1" to="-1185727714"/>
    <trip id="192" depart="192.00" from="-938364716#0" to="191454929"/>
    <trip id="193" depart="193.00" from="565149705" to="-183743623#0"/>
    <trip id="194" depart="194.00" from="146273155#1" to="358303750"/>
    <trip id="195" depart="195.00" from="-473022567#0" to="35923434#1"/>
    <trip id="196" depart="196.00" from="213800241#3" to="-98849680"/>
    <trip id="197" depart="197.00" from="35835339#0" to="-112581457#3"/>
    <trip id="198" depart="198.00" from="36071925#0" to="372800321#2"/>
    <trip id="199" depart="199.00" from="-295024817" to="183743586#3"/>
    <trip id="200" depart="200.00" from="-36203029" to="98713277"/>
    <trip id="201" depart="201.00" from="270023836" to="-140695196#4"/>
    <trip id="202" depart="202.00" from="-98747941#0" to="566145445#0"/>
    <trip id="203" depart="203.00" from="184110290#0" to="467257795#6"/>
    <trip id="204" depart="204.00" from="35837058#3" to="98858521#4"/>
    <trip id="205" depart="205.00" from="344502261#3" to="98697022"/>
    <trip id="206" depart="206.00" from="75503692" to="357794339#3"/>
    <trip id="207" depart="207.00" from="359511072#1" to="256551225#2"/>
    <trip id="208" depart="208.00" from="494621260#0" to="343432610"/>
    <trip id="209" depart="209.00" from="75729902#4" to="36111779#1"/>
    <trip id="210" depart="210.00" from="190525290#2" to="112550804#2"/>
    <trip id="211" depart="211.00" from="-98697074" to="358336245#7"/>
    <trip id="212" depart="212.00" from="36226521" to="28821343#3"/>
    <trip id="213" depart="213.00" from="35782160#3" to="112584749#1"/>
    <trip id="214" depart="214.00" from="-183743616#1" to="112587257#14"/>
    <trip id="215" depart="215.00" from="112581467" to="1188432135"/>
    <trip id="216" depart="216.00" from="292203592#9" to="-358306375#4"/>
    <trip id="217" depart="217.00" from="-74486822#3" to="35923003#4"/>
    <trip id="218" depart="218.00" from="35923405#1" to="-1514052124#0"/>
    <trip id="219" depart="219.00" from="143324395#1" to="32009056#2"/>
    <trip id="220" depart="220.00" from="149052772#1" to="-561259974#0"/>
    <trip id="221" depart="221.00" from="1514052124#1" to="77609182#1"/>
    <trip id="222" depart="222.00" from="34435272#1" to="35923383#1"/>
    <trip id="223" depart="223.00" from="567160914" to="372166367#2"/>
    <trip id="224" depart="224.00" from="140695191#2" to="-112581462#1"/>
    <trip id="225" depart="225.00" from="1196399869#0" to="36224969#2"/>
    <trip id="226" depart="226.00" from="151152809#3" to="36199586#2"/>
    <trip id="227" depart="227.00" from="306093018" to="35773068#0"/>
    <trip id="228" depart="228.00" from="-567896182#1" to="-713673057#0"/>
    <trip id="229" depart="229.00" from="183743618#0" to="-1188513898"/>
    <trip id="230" depart="230.00" from="1188811350#2" to="35855776#1"/>
    <trip id="231" depart="231.00" from="141882618#4" to="-36054963#2"/>
    <trip id="232" depart="232.00" from="35779186#4" to="-1188465825#2"/>
    <trip id="233" depart="233.00" from="140990891#3" to="343690129#1"/>
    <trip id="234" depart="234.00" from="-1185727716" to="35834866#0"/>
    <trip id="235" depart="235.00" from="-357794351#1" to="184128427#3"/>
    <trip id="236" depart="236.00" from="-136123189#0" to="140695210#3"/>
    <trip id="237" depart="237.00" from="-536173631#2" to="1188604311#3"/>
    <trip id="238" depart="238.00" from="36200950" to="140695210#4"/>
    <trip id="239" depart="239.00" from="36079123#2" to="503757243#1"/>
    <trip id="240" depart="240.00" from="-113431926#0" to="31485363"/>
    <trip id="241" depart="241.00" from="993870463" to="1256654507#1"/>
    <trip id="242" depart="242.00" from="35833634#0" to="374530221"/>
    <trip id="243" depart="243.00" from="35834515#0" to="36226521"/>
    <trip id="244" depart="244.00" from="98697025#0" to="-492348288"/>
    <trip id="245" depart="245.00" from="-1153422818#6" to="-35855428#0"/>
    <trip id="246" depart="246.00" from="-344499613" to="35846723#2"/>
    <trip id="247" depart="247.00" from="343465971" to="-677901924#8"/>
    <trip id="248" depart="248.00" from="35902564#3" to="372180618#1"/>
    <trip id="249" depart="249.00" from="-36071029#2" to="357759070#2"/>
    <trip id="250" depart="250.00" from="36071688#3" to="-343697878#1"/>
    <trip id="251" depart="251.00" from="474199301" to="98779194#5"/>
    <trip id="252" depart="252.00" from="-315765583#1" to="-1186610080#1"/>
    <trip id="253" depart="253.00" from="1153422818#2" to="35855719#9"/>
    <trip id="254" depart="254.00" from="98775365#8" to="141433497#2"/>
    <trip id="255" depart="255.00" from="35930592" to="-183757931#1"/>
    <trip id="256" depart="256.00" from="35855917" to="358301693#0"/>
    <trip id="257" depart="257.00" from="-288400355#0" to="372818272#0"/>
    <trip id="258" depart="258.00" from="566112906#0" to="35769954#3"/>
    <trip id="259" depart="259.00" from="-344272651" to="98849674#1"/>
    <trip id="260" depart="260.00" from="372818253#3" to="1202721775#2"/>
    <trip id="261" depart="261.00" from="183743580#2" to="139015375#2"/>
    <trip id="262" depart="262.00" from="234785641#2" to="1191746780#1"/>
    <trip id="263" depart="263.00" from="565147324#0" to="489389753"/>
    <trip id="264" depart="264.00" from="-294891022#8" to="98775366#1"/>
    <trip id="265" depart="265.00" from="358195685#2" to="495260406#1"/>
    <trip id="266" depart="266.00" from="35923483#2" to="183755702#2"/>
    <trip id="267" depart="267.00" from="360476004#0" to="98780203#2"/>
    <trip id="268" depart="268.00" from="112581452" to="470576618"/>
    <trip id="269" depart="269.00" from="292203592#0" to="196462921#0"/>
    <trip id="270" depart="270.00" from="183743616#1" to="36069067#4"/>
    <trip id="271" depart="271.00" from="112557497#0" to="566414214#4"/>
    <trip id="272" depart="272.00" from="70930782#0" to="-98849677#3"/>
    <trip id="273" depart="273.00" from="184128403#0" to="35778090#1"/>
    <trip id="274" depart="274.00" from="140695188#3" to="-1188468832"/>
    <trip id="275" depart="275.00" from="566145445#0" to="-373208226"/>
    <trip id="276" depart="276.00" from="-536385784#3" to="45409816#7"/>
    <trip id="277" depart="277.00" from="1189941497#1" to="666988928#1"/>
    <trip id="278" depart="278.00" from="35915952#0" to="112584762#2"/>
    <trip id="279" depart="279.00" from="-112584759" to="98696995#1"/>
    <trip id="280" depart="280.00" from="-184120578#1" to="360259908#0"/>
    <trip id="281" depart="281.00" from="195495861#2" to="367453368#0"/>
    <trip id="282" depart="282.00" from="35855917" to="35835339#1"/>
    <trip id="283" depart="283.00" from="-191454912#2" to="-75729902#0"/>
    <trip id="284" depart="284.00" from="35856025#0" to="1159213774"/>
    <trip id="285" depart="285.00" from="344272641#1" to="191454912#2"/>
    <trip id="286" depart="286.00" from="28821579#12" to="183743586#7"/>
    <trip id="287" depart="287.00" from="36071522#0" to="1188811350#1"/>
    <trip id="288" depart="288.00" from="359162240#0" to="112581495#2"/>
    <trip id="289" depart="289.00" from="-98847186" to="-344279537#2"/>
    <trip id="290" depart="290.00" from="-469939423" to="-344272646#0"/>
    <trip id="291" depart="291.00" from="288400812#0" to="372005586#1"/>
    <trip id="292" depart="292.00" from="-45409808#5" to="-621979905"/>
    <trip id="293" depart="293.00" from="191454934#0" to="36054777#4"/>
    <trip id="294" depart="294.00" from="98847255#3" to="288400363#5"/>
    <trip id="295" depart="295.00" from="112584762#7" to="-288400355#0"/>
    <trip id="296" depart="296.00" from="-470671831#0" to="-808109605"/>
    <trip id="297" depart="297.00" from="-373181164#1" to="-112587288#0"/>
    <trip id="298" depart="298.00" from="288400367#4" to="112582370#0"/>
    <trip id="299" depart="299.00" from="98847191#0" to="343436087#0"/>
    <trip id="300" depart="300.00" from="35899990" to="-344477309#1"/>
    <trip id="301" depart="301.00" from="60769712#4" to="228185317"/>
    <trip id="302" depart="302.00" from="61340013#5" to="344285425#1"/>
    <trip id="303" depart="303.00" from="184128425#0" to="183755804#2"/>
    <trip id="304" depart="304.00" from="933518098#0" to="191993025"/>
    <trip id="305" depart="305.00" from="474230115#2" to="1428542441"/>
    <trip id="306" depart="306.00" from="-183743594#4" to="358303741"/>
    <trip id="307" depart="307.00" from="-140695184#3" to="-35842044#0"/>
    <trip id="308" depart="308.00" from="343454365" to="113952118#2"/>
    <trip id="309" depart="309.00" from="98884186#3" to="-344253502#2"/>
    <trip id="310" depart="310.00" from="36202494#2" to="357759045"/>
    <trip id="311" depart="311.00" from="374259660#1" to="-804931848"/>
    <trip id="312" depart="312.00" from="27617970#4" to="184118442"/>
    <trip id="313" depart="313.00" from="183755786#0" to="569696688"/>
    <trip id="314" depart="314.00" from="98865386#0" to="1153422818#1"/>
    <trip id="315" depart="315.00" from="35778090#0" to="35777690#4"/>
    <trip id="316" depart="316.00" from="36056795#0" to="98696988#0"/>
    <trip id="317" depart="317.00" from="-495273420#1" to="-567143461#0"/>
    <trip id="318" depart="318.00" from="35836892#3" to="-359280339#0"/>
    <trip id="319" depart="319.00" from="-36199496#1" to="-183757923#1"/>
    <trip id="320" depart="320.00" from="-112550804#2" to="184118442"/>
    <trip id="321" depart="321.00" from="344499611#1" to="112587281#0"/>
    <trip id="322" depart="322.00" from="-75296172#0" to="359507070#4"/>
    <trip id="323" depart="323.00" from="35916323#0" to="184128361#0"/>
    <trip id="324" depart="324.00" from="35855719#4" to="83523652#0"/>
    <trip id="325" depart="325.00" from="373208234" to="358195689#0"/>
    <trip id="326" depart="326.00" from="35836897#1" to="896258503#0"/>
    <trip id="327" depart="327.00" from="183735296#3" to="339606507#1"/>
    <trip id="328" depart="328.00" from="358336246" to="77727772#1"/>
    <trip id="329" depart="329.00" from="490480283#1" to="-183743611#1"/>
    <trip id="330" depart="330.00" from="-36054976#2" to="1181984816"/>
    <trip id="331" depart="331.00" from="36071762#1" to="344253502#0"/>
    <trip id="332" depart="332.00" from="112585169#0" to="-344461947"/>
    <trip id="333" depart="333.00" from="35855744#8" to="359277418#0"/>
    <trip id="334" depart="334.00" from="947216242#0" to="234939140#3"/>
    <trip id="335" depart="335.00" from="205500770#2" to="-183856235#1"/>
    <trip id="336" depart="336.00" from="-1191759578" to="183743627#1"/>
    <trip id="337" depart="337.00" from="1185727256" to="1050575800#0"/>
    <trip id="338" depart="338.00" from="-184128430#0" to="98779149#3"/>
    <trip id="339" depart="339.00" from="511066477" to="34436515#1"/>
    <trip id="340" depart="340.00" from="98697040#2" to="992559103"/>
    <trip id="341" depart="341.00" from="35842133" to="112581489#4"/>
    <trip id="342" depart="342.00" from="-1195188186" to="36227055#6"/>
    <trip id="343" depart="343.00" from="184128427#2" to="35836902#1"/>
    <trip id="344" depart="344.00" from="808109589" to="-373181164#5"/>
    <trip id="345" depart="345.00" from="34436905#1" to="35833523#4"/>
    <trip id="346" depart="346.00" from="196873647#0" to="-190796499"/>
    <trip id="347" depart="347.00" from="1191752150" to="1188890191"/>
    <trip id="348" depart="348.00" from="35842045#2" to="568955325#1"/>
    <trip id="349" depart="349.00" from="1188468830#4" to="35923003#0"/>
    <trip id="350" depart="350.00" from="112585166#3" to="958198750#1"/>
    <trip id="351" depart="351.00" from="469774961#2" to="343435960#1"/>
    <trip id="352" depart="352.00" from="183856323#0" to="1185227727"/>
    <trip id="353" depart="353.00" from="1185727976" to="98837660#1"/>
    <trip id="354" depart="354.00" from="141882618#2" to="27617970#7"/>
    <trip id="355" depart="355.00" from="98865112#1" to="35837079#2"/>
    <trip id="356" depart="356.00" from="294891022#6" to="151151440"/>
    <trip id="357" depart="357.00" from="-466192202" to="135476779#1"/>
    <trip id="358" depart="358.00" from="36198270#3" to="358195689#1"/>
    <trip id="359" depart="359.00" from="36199697#2" to="-533820151#0"/>
    <trip id="360" depart="360.00" from="315765583#1" to="853192848"/>
    <trip id="361" depart="361.00" from="183755697#10" to="359277408"/>
    <trip id="362" depart="362.00" from="-344279537#0" to="98841101"/>
    <trip id="363" depart="363.00" from="357447395" to="-98841097"/>
    <trip id="364" depart="364.00" from="-359302694" to="343435976"/>
    <trip id="365" depart="365.00" from="339606509#0" to="-213808730"/>
    <trip id="366" depart="366.00" from="98870443#5" to="78604331#1"/>
    <trip id="367" depart="367.00" from="184128368" to="-344253490#0"/>
    <trip id="368" depart="368.00" from="495763028#3" to="234423715#0"/>
    <trip id="369" depart="369.00" from="359365603#1" to="259218551#0"/>
    <trip id="370" depart="370.00" from="112581476#4" to="525722069#0"/>
    <trip id="371" depart="371.00" from="98849387#10" to="-98849677#2"/>
    <trip id="372" depart="372.00" from="324831045#1" to="140695254#0"/>
    <trip id="373" depart="373.00" from="833142499#0" to="257072921#0"/>
    <trip id="374" depart="374.00" from="666988928#1" to="584516573#3"/>
    <trip id="375" depart="375.00" from="112581489#4" to="421813782#1"/>
    <trip id="376" depart="376.00" from="146544718#1" to="897965870"/>
    <trip id="377" depart="377.00" from="234939140#0" to="486359766#2"/>
    <trip id="378" depart="378.00" from="112584762#5" to="112587310#2"/>
    <trip id="379" depart="379.00" from="344461912#1" to="99017558#1"/>
    <trip id="380" depart="380.00" from="292203592#13" to="1196025823"/>
    <trip id="381" depart="381.00" from="339606507#3" to="323694379#5"/>
    <trip id="382" depart="382.00" from="183856880#1" to="1188466751#0"/>
    <trip id="383" depart="383.00" from="-469492070" to="359277406#4"/>
    <trip id="384" depart="384.00" from="343670532#3" to="-886194084#1"/>
    <trip id="385" depart="385.00" from="372166356" to="-1325603294"/>
    <trip id="386" depart="386.00" from="36071442#1" to="359345615#0"/>
    <trip id="387" depart="387.00" from="466629944#2" to="140990853#1"/>
    <trip id="388" depart="388.00" from="35836947#2" to="488217963"/>
    <trip id="389" depart="389.00" from="98849387#6" to="23162026#4"/>
    <trip id="390" depart="390.00" from="61414278#3" to="183755804#0"/>
    <trip id="391" depart="391.00" from="284759961" to="184128402#1"/>
    <trip id="392" depart="392.00" from="359524745#4" to="1475065161"/>
    <trip id="393" depart="393.00" from="35835163#1" to="-35857476#0"/>
    <trip id="394" depart="394.00" from="184128425#0" to="98781177"/>
    <trip id="395" depart="395.00" from="1188890191" to="35916429#1"/>
    <trip id="396" depart="396.00" from="358336265#6" to="566414214#5"/>
    <trip id="397" depart="397.00" from="566339461#7" to="569548850"/>
    <trip id="398" depart="398.00" from="140695190#7" to="1185726517"/>
    <trip id="399" depart="399.00" from="359510248" to="368289747#3"/>
    <trip id="400" depart="400.00" from="61340013#1" to="-1191752152#3"/>
    <trip id="401" depart="401.00" from="-151152812#1" to="358306371#9"/>
    <trip id="402" depart="402.00" from="832892260" to="99017523#0"/>
    <trip id="403" depart="403.00" from="36071602#2" to="183755697#13"/>
    <trip id="404" depart="404.00" from="-27584441#1" to="358306380#0"/>
    <trip id="405" depart="405.00" from="61340013#4" to="183818575#1"/>
    <trip id="406" depart="406.00" from="35857380#0" to="77609174"/>
    <trip id="407" depart="407.00" from="-1303742631#1" to="45409812#13"/>
    <trip id="408" depart="408.00" from="112587264#0" to="140695185#0"/>
    <trip id="409" depart="409.00" from="-35836899#0" to="292203593#3"/>
    <trip id="410" depart="410.00" from="343465985#1" to="449567139#2"/>
    <trip id="411" depart="411.00" from="-360846231#2" to="-183856209#5"/>