<?xml version="1.0" encoding="UTF-8"?>

<!-- generated on 2026-06-02 21:07:13.849897 by Eclipse SUMO randomTrips.py v1.26.0
<configuration>
    <net-file value="osm.net.xml.gz"/>
    <route-file value="precalculated_routes.rou.xml"/>
    <fringe-factor value="5"/>
    <end value="1800.0"/>
</configuration>
-->

<!-- generated on 2026-06-02T21:07:13.246691+01:00 by Eclipse SUMO duarouter 1.26.0
<duarouterConfiguration xmlns:xsi="http://www.w3.org/2001/XMLSchema-instance" xsi:noNamespaceSchemaLocation="http://sumo.dlr.de/xsd/duarouterConfiguration.xsd">

    <input>
        <net-file value="osm.net.xml.gz"/>
        <route-files value="trips.trips.xml"/>
    </input>

    <output>
        <output-file value="precalculated_routes.rou.xml"/>
        <alternatives-output value="NUL"/>
    </output>

    <time>
        <begin value="0"/>
        <end value="1800.0"/>
    </time>

    <report>
        <no-warnings value="true"/>
        <ignore-errors value="true"/>
        <no-step-log value="true"/>
    </report>

</duarouterConfiguration>
-->

<routes xmlns:xsi="http://www.w3.org/2001/XMLSchema-instance" xsi:noNamespaceSchemaLocation="http://sumo.dlr.de/xsd/routes_file.xsd">
    <vehicle id="0" depart="0.00">
        <route edges="635367428 635371946 635371944 109849491 640258003 640175130 633553968 766639822#1 481632954 33543730#0 33543730#1 75501992 635249666 634940240 75501993 634906816#0 634906816#1 639302657#0 639302657#1 634906814 391434120 391434121#0 391434121#1 462818709 383249802#0 383249802#1 636912115 795211464 22886852#1 75326374 251582079 251582083#0 251582083#1 251582083#2 655232306 795202558 251582191 540472395 644131147 644131138#0 644131138#1 652568626#0 652568626#1 104515355 537120340 251582074#0 251582074#1 251582075#1 251582075#2 655218266 644239662#0 644239662#1 -537120336 -646680018 -754520671 -644239660 -537120337#1 -537120337#0"/>
    </vehicle>
    <vehicle id="1" depart="1.00">
        <route edges="22885524#1 22885524#2 22885524#3 633301620#0 633301620#1 -642429520#1 -642429520#0 -643399165 -175540490 -649245472 -635584232#1 -635584232#0 -539351602 539351604 889476177 512991822 654880294 744216629 744216701 654881322#0 654881322#1 383286544 635250643 635250640 512991814 75334701 119937070#1 121157363 1295636131 479773705 74592215 635320462 635320464 635320461 479774594#0 479774594#1 44628809 479774980#0 479774980#1 654864034 654864035 173767976#0 173767976#1 325024346 173767739 173767741#0 173767741#1"/>
    </vehicle>
    <vehicle id="2" depart="2.00">
        <route edges="644047741 644047739#0 644047739#1 697833509 644062253 256160611#0 256160611#1 256160611#2 540472413 528508760 709536917 383249803#0 383249803#1 175879018 22071728#0 22071728#1 633588686 655234886 265150877 796737415 655680115 22886447 655680114 655233246 647087519#0 647087519#1 445282929 537088432 251582077#0 251582077#1 251582077#2 481651348#0 481651348#1 -537088430 172344206#0 172344206#1 637363882#0 637363882#1 637363882#2 637363882#3"/>
    </vehicle>
    <vehicle id="3" depart="3.00">
        <route edges="481651355 539538347#0 539538347#1 75417916 539538351#0 539538351#1 251582040 636850502 636850503 636837409 709124944 630409404 539538356#1 174556555 22752824 174556553#0 174556553#1 635671225 251582021#1 655783819 383209584#0 383209584#1 481628924 75321745#0 75321745#1 635654402 903361559 251582022#0 251582022#1 635250011 251582175#0 251582175#1 539535925 709881792 482059928 482059929 537088481 539535931#0 539535931#1 709881791 709881790 482059931 709881789 482059932#0 482059932#1 74592153 223860422 709857773#0 709857773#1 709857773#2 223860418#0 223860418#1 223860418#2 639551510 223860429#0 223860429#1 655132607 737226991 710469844 639551513 639551512 482047359 465432870#0 465432870#1 539770672 -539770674"/>
    </vehicle>
    <vehicle id="4" depart="4.00">
        <route edges="155949885 251582062#0 251582062#1 251582062#2 649163300 251582063#0 251582063#1 537088421 251582087 251582061 481869556#0 481869556#1 780098992#0 780098992#1 780098991#1 251582058 251582060#0 251582060#1 251582057#0 251582057#1 251582056 537757463 635751281#0 635751281#1 786105603 826838088 251582054#0 251582054#1 251581992#0 251581992#1 251581990 482057944#0 482057944#1 173896156 173896157#0 173896157#1 539535925 709881792 482059928 482059929 537088481 539535931#0 539535931#1 709881791 709881790 482059931 709881789 482059932#0 482059932#1 74592153 223860387#0 223860387#1 709881788 541130679 541130678 654735633 465437250#0 465437250#1 654980887 709625374 173767752#1 482534352 482522732 537120322 537120321#0"/>
    </vehicle>
    <vehicle id="5" depart="5.00">
        <route edges="-537120337#1 -537120337#0 -683868625 -643637361#1 -643637361#0 481651347#0 481651347#1 251582081 251582084#0 251582084#1 635659286 251582091#0 251582091#1 251582087 251582088#0 251582088#1 642142067 482101760#0 482101760#1 22886354 633564693#0 633564693#1 633564691 655529245#0 655529245#1 251582096#1 481651346#1 106857020#0 106857020#1 651902481 251582086 539538349#0 539538349#1 75338409 75417916 539538351#0 539538351#1 251582040 636850502 636850503 636837409 709124944 630409404 539538356#1 174556555 22885269#0 22885269#1 655781911#0 655781911#1 539538359#0 539538359#1 655781908 672304902 630409428#1 768026924 481621522#0 481621522#1 636839120 709881794 173767748 636810379 630409124#1 75490158 633270550#0 633270550#1 633270549 643228428 223860461 636806237#0 636806237#1 544836657 22885270 710411461 251603194#0 251603194#0-AddedOffRampEdge 882665675 1077945403 1077945403-AddedOffRampEdge 1422595594#0 1422595594#1"/>
    </vehicle>
    <vehicle id="6" depart="6.00">
        <route edges="635634181#3 641103757 711668522 641103755 641122988 711668530 351310948#0 351310948#1 711668536 635374653 711695943 711695941 635374657 635374656#0 635374656#1 635374655 635392773 194654916#0 194654916#1 649163256 635393381 635689170#0 635689170#1 325024326 325024310 325024307#0 325024307#1 667362634 482073397 482073401 482073403 741982929 741982928 325024311 630177946#0 630177946#1 536655855 512870465#0 512870465#1 75237303#0 75237303#1 482078528#1 781959230 482078546 75046508#0 75046508#1 536655841 539519079#0 539519079#1 173767586#0 173767586#1 652145499#1 652145500#0 652145500#1 727865188 538208753 146663347 656791027 641239650 654993196 539526398#0 539526398#1 482050136 512870435#0 512870435#1 709881787 75045951 541130676 709881786 755100185#0 755100185#1 223860388 74592160#0 74592160#1 223860389 635333987 655012848#1 482052150 481632949 173896155 251582185#0 251582185#1 639551504 22885862#0 22885862#1 637957161 706845933 710426488 512870414#0 512870414#1 633398759#0 633398759#1 74939750 637936927 655225986 481682748 710426487#1 1350921214 1350921216 650089053 632083258 789787656#0 789787656#1 538291758 538291757 635525104#0 635525104#1 481632950 539771056#0 539771056#1 652556632 482047357#0 482047357#1 482047357#2 639856861 541148094#0 541148094#1"/>
    </vehicle>
    <vehicle id="7" depart="7.00">
        <route edges="162514275#0 162514275#1 744549743#0 744549743#1 465523234#0 465523234#1 465523234#2 724414776 1117721907#0 1117721907#1 1117721907#2 632756352#0 632756352#1 632758380#0 632758380#1 465523233#0 465523233#1 536655886 465523232#0 465523232#1 465523232#2 632083692 632083693 632768097#1 825637535 632768098 465523231#0 465523231#1 465523225 477967038 75310664#0 75310664#1 325024315 22752253 22752251#1 633299799#0 633299799#1 512870446 539184143#0 539184143#1 654908387#1 711668515 632391051#0 632391051#1 649819489 632391050"/>
    </vehicle>
    <vehicle id="8" depart="8.00">
        <route edges="652537222#0 652537222#1 -100575780 -652537222#0 754799487#0 754799487#1 646176442#1 265150811#3 265150811#5 265150811#6 666938529 754507953 636880513#0 636880513#1 537088399 537088402 635691785#0 635691785#1 636933620 673292233 481632958#0 539538358#0 539538358#1 22752824 174556553#0 174556553#1 635671225 251582021#1 655783819 383209584#0 383209584#1 481628924 75321745#0 75321745#1 635654402 903361559 251582022#0 251582022#1 635250011 251582175#0 251582175#1 539535925 709881792 482059928 482059929 537088481 539535931#0 539535931#1 709881791 709881790 482059931 709881789 482059932#0 482059932#1 74592153 223860387#0 223860387#1 709881788 541130679 541130678 654735633 512991812#0 512991812#1 482089315 539526399#0 539526399#1 75045950 635323752 635323754#0 635323754#1 630800418#0 630800418#1 539519074 538208754#1 539519082 727865189 539519083#0 539519083#1 539519077 655143167 493838352#0 493838352#1 75046507 22903989 482088089 632695037 482088091 1493036320 641145335 482080587#0 482080587#1 652152115 652152114 632703919 652152112 482082378#0 482082378#1 173166864 617923187#0 617923187#1 175847336 660073260#1 482083280 482083282 712075703#0 712075703#1 536655846 536655845 482083284 482083287 668589553#0 668589553#1 668589554 660074445 482084331 175014495#1 512870466 173767742 632719735 265150809 654866555 539328450 633247277 633247278#0 633247278#1 173767739 173767741#0 173767741#1 479535239 632708594#1 479563865 265150865 479565801 74860023#0 74860023#1 -1333303694#1 -1333303694#0"/>
    </vehicle>
    <vehicle id="9" depart="9.00">
        <route edges="651935224 639551504 22885862#0 22885862#1 637957161 706845933 710426488 440918817#0 440918817#1 -74939747 -664066620 -635749290 -664066619 -664066618 -664070760#1 -664070760#0 -22885489 -667464241 -639595021 -639595022 -639595023 -722309143 -538291736 -640187459 -664074415 -639055183 -639055180 -639055816 -538291742 -692680064 692680066#0 692680066#1 74592179 537088479 223860419#0 223860419#1 635752305 635309558 539770675#0 539770675#1 655017837 635679564#0 635679564#1 640183073#0 640183073#1 539770678 633051551 481682746#0 481682746#1 539770682 223860433#0 223860433#1 223860433#2 482047358#0 482047358#1 482047358#2 639857011#0 639857011#1 512870454 1075757971#0 1075757971#1 639869037#0"/>
    </vehicle>
    <vehicle id="10" depart="10.00">
        <route edges="380710424#1 -634986365 -640024801 640024801 634986365 194654917 747390016#1 536655849 536655846 536655845 482083284 482083287 668589553#0 668589553#1 668589554 660074445 482084331 175014495#1 512870466 173767742 632719735 265150809 654866555 539328450 633247277 633247278#0 633247278#1 173767739 173767965 173768003#0 173768003#1 539328454 635302124 262961712 479774986#0 479774986#1 479774985#0 479774985#1 75334689 155949887 119937078 654882142 654882143 654882143-AddedOffRampEdge 1183482555 632361584 654882141 652021784 44638538 631754161 265150727 632343903 44776103 632064980 709510018 32633651 541148074 655518547 390869281#0 390869281#1 760593096 643337756#1 115812039#0 115812039#1 643337755#0 643337755#1 789738592 676769688#0 676769688#1 676769688#2 676769688#3 789741569 789741561 789741560 882664391 -390894636 -906018952"/>
    </vehicle>
    <vehicle id="11" depart="11.00">
        <route edges="75383261 512870446 539184143#0 539184143#1 654908387#1 711668515 632391051#0 632391051#1 649819489 632391050 75046501#0 75046501#1 173767725 175847334#0 175847334#1 482092100 482091079 482091077#0 482091077#1 200159289 464307247#0 464307247#1 175847333 744667805 482103447#0 482103447#1 175847336 660073260#1 482083280 482083282 712075703#0 712075703#1 536655846 380698805 380710424#0 380710424#1 -634986365 -640024801 640024805#0 640024805#1 640024805#2 350351316#0 350351316#1 350351316#2"/>
    </vehicle>
    <vehicle id="12" depart="12.00">
        <route edges="-646376137#2 -646376137#1 -646376137#0 -722555373 722555373 646376137#0 646376137#1 646376137#2 722555375 646844491#1 107577827#0 107577827#1 646844362 736527536#1 640173275#1 649391242 635752304#0 635752304#1 537088477 692680065#0 692680065#1 692680064 538291742 671825487 639055180 639055183 664074415 640187459 664078228 722309143 639595023 639595022 639595021 667464241 22885489 664070760#0 664070760#1 664070759 640177675 635749290 538291733 74939747 440918819#0 440918819#1 74939750 637936927 655225986 22885865 642418505#0 642418505#1 644807221 644807219 711353243 711353242 644822502 711353241 711816248 711816247#0 711816247#1 711816247#2 251582008 646785174 646785173 692688485 646758052#0 646758052#1 674586056 646785922 646758051 646758050 646758048 646788694 646788693 22885891 646792100 646792098 646950157#0 646950157#1 -646651317 -646651316 -646652508 -22887333#1 -22887333#0 -646650474 -646650072"/>
    </vehicle>
    <vehicle id="13" depart="13.00">
        <route edges="652145499#1 652145500#0 652145500#1 727865188 538208753 146663347 656791027 641239650 654993196 465437247#0 465437247#1 632753818 146660825#0 146660825#1 654731435#0 654731435#1 539350751#0 539350751#1 76845949#1 641063778#1 173896278 512870429 726594916#0 726594916#1 726594916#2 512870422 827193715#0 827193715#1 655035840 175540500#1 656745616#0 539351605 632410819#1 539351602 635584232#0 635584232#1 649245472 175540490 643399165 642429520#0 642429520#1"/>
    </vehicle>
    <vehicle id="14" depart="14.00">
        <route edges="539770658 512870408 637345856#0 637345856#1 512870451 539770668 223860432#0 223860432#1 647454855 800692462 654875690 223860430 482087299#0 482087299#1 479741892 635105716#0 635105716#1 638445660 756862014 661640637#0 654862931 654862929 639683020#0 639683020#1 639683021 1183482548#0 1183482548#1 661640626 747494503#0 747494503#1 747494072 747493938 747493824 262839506 747492474 747492473#0 747492473#1 635108164 747490769#0 747490769#1 747490246 635108159 448937709#0 448937709#1 75009438#0 262826534#0 262826534#1 645176543 709860868#1 481656678#0 481656678#1 709860867#1 767792760#0"/>
    </vehicle>
    <vehicle id="15" depart="15.00">
        <route edges="465460543#0 465460543#1 251582040 636850502 636850503 636837409 709124944 251582176#0 251582176#1 537088401#0 537088401#2 655560482 655560487 655560490 635691925#0 635691925#1 537088400 537088399 537120329#0 537120329#1 635498514 754510801#0 754510801#1 537088398 646669969#0 646669969#1 646669969#2 709632859 715459500 645299681 544648579#0 544648579#1 668586767 544650072#1 544650072#2 754511143 465463322 544650071#1 -754511143 -544650072#2 -544650072#1 -544650072#0 544648580#0 544648580#1"/>
    </vehicle>
    <vehicle id="16" depart="16.00">
        <route edges="655627860 251582051 649161101 146652593#0 146652593#1 251582110 826324588 251582064#0 251582064#1 780098992#0 780098992#1 780098991#1 251582058 251582060#0 251582060#1 251582057#0 251582057#1 251582056 537757463 635751281#0 635751281#1 786105603 826838088 251582054#0 251582054#1 251581992#0 251581992#1 251581990 482057944#0 482057944#1 173896156 173896157#0 173896157#1 539535925 709881792 482059928 482059929 537088481 539535931#0 539535931#1 709881791 709881790 482059931 709881789 482059932#0 482059932#1 74592153 223860387#0 223860387#1 709881788 541130679 541130678 654735633 512991812#0 512991812#1 482089315 539526399#0 539526399#1 75045950 635323752 635323754#0 635323754#1 630800418#0 630800418#1 539519074 538208754#1 539519082 727865189 539519083#0 539519083#1 539519077 655143167 493838352#0 493838352#1 75046507 173767588#0 173767588#1 632724009#0 632724009#1 482078542#1 667450562 632710849 465283774#0 465283774#1 22904181#2 482092103#0 482092103#1 711668514 482092105#0 482092105#1 482092662#1 512870464 75046500#0 75046500#1 75046500#2 22904179 633571299 173767592#0 173767592#1 75310666 512870242#0 512870242#1 176174487#0 176174487#1 479326470#0 479326470#1 479326470#2 633559681#0 633559681#1 633559681#2 155925876#0 155925876#1 155925876#2 155925876#3 634502817#0 634502817#1 638473894 633558218#0"/>
    </vehicle>
    <vehicle id="17" depart="17.00">
        <route edges="673822332#1 673822332#2 -104127527#1 -104127527#0 -670117798#0 -722555369#1 -722555369#0 -722555367#0 -647104089#2 -647104089#1 -647104089#0 -644408424#1 -644408424#0 -104127529 737226992#0 737226992#1 737226991 710469844 639551513 639551512 482047359 512870456#0 512870456#1 537088479 223860419#0 223860419#1 635752305 635309558 539770675#0 539770675#1 655017837 635679564#0 635679564#1 640183073#0 640183073#1 539770678 633051551 481682746#0 481682746#1 539770682 223860433#0 223860433#1 223860433#2 482047358#0 482047358#1 482047358#2 539770668 223860432#0 223860432#1 647454855 800692462 654875690 223860430 482087299#0 482087299#1 479741892 635105716#0 635105716#1 638445660 756862014 661640637#0 654862931 654862929 639683020#0 639683020#1 639683021 1183482548#0 1183482548#1 661640626 747494503#0 747494503#1 747494072 747493938 747493824 262839506 747492474 747492473#0 747492473#1 635108164 747490769#0 747490769#1 747490246 635108159 448937510#0 448937510#1 448937511 448937499 173896225 448937524#0 448937524#1 747490245 747490771#0 747490771#1 747490770 747492476#0 747492476#1 747492475 632064916 747493825 747493939#0 747493939#1 747494073 747494504#0 747494504#1 747494970 632080303#0 632080303#1"/>
    </vehicle>
    <vehicle id="18" depart="18.00">
        <route edges="640009472 639992049 467100042#0 467100042#1 537127448 479544596 39959155#1 637963121#0 637963121#1 479562385 725220564 74860017#0 725221150 725221151#0 725221151#1 174886224 539418597 22903988#0 22903988#1 244362471 512870442 173767740 642134875 630398747#1 479565801 74860023#0 74860023#1 1333303692 632442406 539328453#0 539328453#1 119941775 325024328#0 325024328#1 539328451 656456696 656456695 173767743 656456697 635722833 656645140 265150808 742191413#1 741812434 635725980 536655848 536655847#0 536655847#1 652274162 641568874 635585660#0 635585660#1 175847335 538210924#0 538210924#1 632435680 74798117#0 74798117#1 74798117#2 74798117#3 635389192 635389191 641145336 538209847 482080585 482080584 482088088#0 482088088#1 173767738 22904186#0 22904186#1 493838353 639971225 649166944 389137324#0 389137324#1 635728085 641071643 481110991 640000612#0 640000612#1 690385032 782985968#0 782985968#1 640325385 641063773 727865190 537757454#0 537757454#1 482514845#0 482514845#1 481881827#0 481881827#1 639642926#0 639642926#2 747183705 482531034#0 482531034#1 482531034#2 658175075 481629427#0 481629427#1 481629427#2 482514847#0 482514847#1 482514847#2 482514849 -482522724#1 -482522724#0 -670354311 -636875118#3 -636875118#2 -636875118#1 -636875118#0 -645256104 -482522725#3 -482522725#2 -482522725#1 -482522725#0 -737180254#2 -737180254#1 -737180254#0 -641077968#1 -636854773 -671269517 -636854776#0 -689571993#2 -689571993#1 -689571993#0 -737180255#3 -737180255#2 -737180255#1 -737180255#0 -636854778 -670349601#3 -670349601#2 -670349601#1 -670349601#0 -635526395#4 -635526395#3 -635526395#2 -635526395#1 -635526395#0"/>
    </vehicle>
    <vehicle id="19" depart="19.00">
        <route edges="173767725 536655855 512870465#0 512870465#1 75237303#0 75237303#1 482078528#1 781959230 482078546 75046508#0 75046508#1 536655841 539519079#0 539519079#1 173767586#0 173767586#1 652145499#1 652145500#0 652145500#1 727865188 538208753 146663347 656791027 641239650 654993196 539526398#0 539526398#1 482050136 512870435#0 512870435#1 709881787 75045951 541130676 709881786 755100185#0 755100185#1 223860388 74592160#0 74592160#1 223860389 635333987 655012848#1 482052150 481632949 173896155 482084641#0 482084641#1 173767589 173896164 251581993 635688085 635301958 635294932#0 635294932#1 537757465 74592172#0 74592172#1 482057941#1 709567666 709567667#0 709567667#1 173896168 251581989 736937268#0 736937268#1 736937268#2 736937268#3 635327430#0 635327430#1 537088439 537088448 537088446 537088443#0 537088443#1 796737414 709567668 251581991#0 251581991#1"/>
    </vehicle>
    <vehicle id="20" depart="20.00">
        <route edges="-645259771 -645259308 -645259309 -633447301#1 -633447301#0 640170882#0 640170882#1 512870330 729800501 674356795#1 823170806 823170687 649816717 632390287 325024348#0 325024348#1 632390289#2 632390288 744907219 175014499#1 175014499#2 635751294 654902921 635748328 175014497 632713057#1 383286542 173767728#0 173767728#1 482088811 482087547#1 641546938 482087546#1 482086718 194654932#0 194654932#1 656456706 656456704 744577281 656456710 539328450 633247277 633247278#0 633247278#1 173767739 173767965 173768003#0 173768003#1 539328454 635302124 262961712 479774986#0 479774986#1 479774985#0 479774985#1 75334689 155949887 119937078 654882142 654882143 654882143-AddedOffRampEdge 1183482555 632361584 654882141 652021784 44638538 631754161 265150727 632343903 44776103 632064980 709510018 32633651 541148074 655518547 538291760#0 538291760#1 173896261#0 173896261#1 541148073 655582456 479747964#0 479747964#1 173896255 173896193 580917219#0 580917219#1 173896199"/>
    </vehicle>
    <vehicle id="21" depart="21.00">
        <route edges="-646663521#0 -646663523 -252391664 -646329925 -646329926 -645164488 -645152265#1 -645152265#0 -645152266 -723687439#1 -723687439#0 -723687438 -173767859#1 -173767859#0 481621504#0 481621504#1 639302656 481621503#1 481621502 672815610 481621501 541148090#0 541148090#1 538291763 551163895#0 551163895#1 632028170 173767821#0 173767821#1 541148081 639429694 175878995 965676167 173896296 965679797 175959595 965679796 115709732 965679798 22887334"/>
    </vehicle>
    <vehicle id="22" depart="22.00">
        <route edges="465270703#1 482073403 741982929 741982928 325024311 630177946#0 630177946#1 536655855 512870465#0 512870465#1 75237303#0 75237303#1 482078528#1 781959230 482078546 75046508#0 75046508#1 536655841 539519079#0 539519079#1 173767586#0 173767586#1 652145499#1 652145500#0 652145500#1 727865188 538208753 146663347 656791027 641239650 654993196 539526398#0 539526398#1 482050136 512870435#0 512870435#1 709881787 75045951 541130676 709881786 755100185#0 755100185#1 223860388 74592134 22885262#0 22885262#1 539535932 482059974 654997444#1 639864857 482108868 75343321#0 75343321#1 75343321#2 541137550 541137551 482072795 630390942#1 465452701 223860428#0 223860428#1 709852441#1 75321741 251582005 1441602049 617971392#0 617971392#1 223860421 75490158 633270550#0 633270550#1 633270549 643228428 223860461 636806237#0 636806237#1 544836657 22885270 710411461 251603194#0 251603194#0-AddedOffRampEdge 882665675 1077945403 1077945403-AddedOffRampEdge 1422595590#0 1422595590#1 1206759833 1209379214 1302872278#0 1302872278#1 1209379204-AddedOnRampEdge 1209379204 1497593553 1497593552"/>
    </vehicle>
    <vehicle id="23" depart="23.00">
        <route edges="223860485#0 223860485#1 223860485#2 223860389 635333987 655012848#1 482052150 22885368 537088481 539535931#0 539535931#1 709881791 709881790 482059931 709881789 482059932#0 482059932#1 74592153 223860387#0 223860387#1 709881788 541130679 541130678 654735633 512991812#0 512991812#1 482089315 539526399#0 539526399#1 75045950 635323752 635323754#0 635323754#1 630800418#0 630800418#1 539519074 538208754#1 539519082 727865189 539519083#0 539519083#1 539519077 655143167 493838352#0 493838352#1 75046507 22903989 482088089 632695037 482088091 1493036320 641145335 482080587#0 482080587#1 652152115 652152114 632703919 652152112 482082378#0 482082378#1 173166864 617923187#0 617923187#1 175847336 660073260#1 482083280 482083282 712075703#0 712075703#1 536655846 536655845 482083284 482083287 668589553#0 668589553#1 668589554 660074445 482084331 175014495#1 512870466 173767742 632719735 265150809 654866555 539328450 633247277 633247278#0 633247278#1 173767739 173767741#0 173767741#1 479535239 632708594#1 479552276#0 479552276#1 539418287 747390007#0 747390007#1"/>
    </vehicle>
    <vehicle id="24" depart="24.00">
        <route edges="635584232#1 649245472 175540490 643399165 642429520#0 642429520#1 383286532#0 383286532#1 512991819 512991815 481682745#0 481682745#1 642198005 637021428 482047353 710473616#0 710473616#1 539770681 512870372#0 512870372#1 1421511620 639450602#0 639450602#1 539770685 654886017 654883557 639689865 654871951 654871953#0 654871953#1 465294877 632803105#0"/>
    </vehicle>
    <vehicle id="25" depart="25.00">
        <route edges="1060425536 1183482565#0 1183482565#1 1183482565#2 262826529 1183482566#0 1183482566#1 -646808303#1 -646808303#0 -646229435#1 -646229435#0 -646229437 -646229439 -722222919 70585703 1183482552 1183482551#0 1183482551#1 1098725796 1183482547 173896223#0 173896223#1 1183482545 747495413#0 661640634 632116857 654864387 632076448#0 632076448#1 173767670 115827240 479741893#0 479741893#1 710421984 173767707 479773430#0 479773430#1 641567453 383286534 121157363 1295636131 479773705 74592215 635320462 635320464 635320461 479774594#0 479774594#1 44628809 479774980#0 479774980#1 654864034 654864035 173767684#0 173767684#1 539328451 656456696 656456695 173767743 656456691 75050008 746626787 175014492#0 175014492#1 482087543 482087544 637965636 482087545 482087549#0 482087549#1 482088813 635752351#1 635752721 482087548 482088807 368007664#0 368007664#1 175014490 482071860 482071861 482071862 482053310 482053314 482071863#0 482071863#1 325024310 325024307#0 325024307#1 667362634 482073397 482073401 482073403 741982929 741982928 325024311 630177946#0 630177946#1 536655855 482310370 22904181#0 22904181#1 22904181#2 482092103#0 482092103#1 711668514 482092105#0 482092105#1 482092662#1 512870464 75046500#0 75046500#1 75046500#2 22904179 633571299 173767592#0 173767592#1 75310666 465523225 465523230#0 465523230#1"/>
    </vehicle>
    <vehicle id="26" depart="26.00">
        <route edges="824070960 482089865 673207938#0 673207938#1 824070958 668611375#0 668611375#1 668180598#0 668180598#1 535317694 741812434 535317695 668180599#0 668180599#1 673207937 668611374 668611373#0 668611373#1 735137377 735137376 1220000767 194654914#0 194654914#1 482089861 482089858 639971296#0 639971296#1 639971296#2 639973431#0 639973431#1 635399928#0 635399928#1 194654915 325024327#0 325024327#1 632733515 640014563#0 640014563#1 635374654 635374655 635374658#0 635374658#1"/>
    </vehicle>
    <vehicle id="27" depart="27.00">
        <route edges="599693197#0 599693197#1 515740363 631529202 531198721#0 531198721#1 465523235 536655889 633314288#0 633314288#1 22945419#0 22945419#1 22945419#2 724474099#0 724474099#1 724474098#1 631527997#1 631527997#2 176204395 631527998#1 631549247 631549246#0 631549246#1 481682734 176204394#0 176204394#1 632716926 162651217#0 162651217#1 173767621#0 631555766 782971910 173767618 631555769 631504109 135977022 1517469823 135977023#0 135977023#1 747008628 747008629 44817060-AddedOnRampEdge 44817060 479561509 649563693 632344714 649565182 649564732 22885263 709881793 22885268 251582030 664204424 635391593#0 635391593#1 223860462 75490159#0 75490159#1 465452699 481621510#0 481621510#1 768026923 173767749#0 173767749#1 482113075 251582031 664195747#1 174556554 22752825 539538357#0 539538357#1 537088401#0 537088401#2 655560482 655560487 655560490 635691925#0 635691925#1 537088400 635588693#0 635588693#1 174556552 655807465#1 656732725 655807453 635588694#0 635588694#1 669871541 639124589"/>
    </vehicle>
    <vehicle id="28" depart="28.00">
        <route edges="664299333#1 635716127#0 635716127#1 664299326 664299328 465490250#0 465490250#1 465490250#2 465490250#3 22887331#0 22887331#1 22887331#2 22887331#3 22887331#4 22887331#5 22887331#6 22887331#7 22887331#8 634853624 631770165#1 631770165#2 -766639830#1 -766639830#0 -251582011 -646659785#1 -646659785#0 -251582010 -646651317 -646651316 -646652508 -22887333#1 -22887333#0 -646650474 -646650072 -646467568 -646467569 -646733281 -646733282 -646733283 -723687434 -646467570#0 645324785 645324784 645325551 251582009 646462177#0 646462177#1 646462175 646462176 646466484 646733277 448161911 646752232 646650651 646650652 646461503 646461500"/>
    </vehicle>
    <vehicle id="29" depart="29.00">
        <route edges="173767740 642134875 630398747#1 479565801 74860023#0 74860023#1 1333303692 632442406 539328453#0 539328453#1 119941775 325024328#0 325024328#1 539328451 656456696 656456695 173767743 656456697 635722833 656645140 265150808 742191413#1 741812434 635725980 536655848 536655847#0 536655847#1 652274162 641568874 635585660#0 635585660#1 175847335 538210924#0 538210924#1 632435680 74798117#0 74798117#1 74798117#2 74798117#3 635389192 635389191 641145336 538209847 482080585 482080584 200159360 539519078 173767586#0 173767586#1 652145499#1 652145500#0 652145500#1 727865188 538208753 146663347 656791027 641239650 654993196 539526398#0 539526398#1 482050136 512870435#0 512870435#1 709881787 75045951 541130676 709881786 755100185#0 755100185#1 223860388 74592134 22885262#0 22885262#1 539535932 482059974 654997444#1 639864857 482108868 75343321#0 75343321#1 75343321#2 541137550 541137551 482072795 630390942#1 465452701 223860428#0 223860428#1 709852441#1 75321741 251582005 1441602049 251582006#0 251582006#1 465452699 481621510#0 481621510#1 768026923 768026473 768026474#0 768026474#1 768026475 704602001 643445068 -704607957#1 -704607957#0 -643444667#2 -643444667#1 -643444667#0 -643444665 -754509028 544648579#0 544648579#1 668586767 544650072#1 544650072#2 754511143 465463322 544650071#1 -754511143 -544650072#2 -544650072#1 -544650072#0"/>
    </vehicle>
    <vehicle id="30" depart="30.00">
        <route edges="251582170#1 173896245 481651353#0 481651353#1 537088416 537088411 251582097 481632956#0 481632956#1 251582099 649167474 251582156#0 251582156#1 503519459#0 503519459#1 635582279 633559308#0 633559308#1 482049276 75343366#0 75343366#1 635667679 709124945 481651355 539538347#0 539538347#1 75417916 539538351#0 539538351#1 251582040 636850502 636850503 636837409 709124944 630409404 539538356#1 174556555 22885269#0 22885269#1 655781911#0 655781911#1 539538359#0 539538359#1 655781908 672304902 630409428#1 768026924 481621522#0 481621522#1 636839120 709881794 173767748 636810379 630409124#1 75490158 633270550#0 633270550#1 633270549 22885274#0 22885274#1"/>
    </vehicle>
    <vehicle id="31" depart="31.00">