<?xml version="1.0" encoding="UTF-8"?>

<!-- generated on 2026-06-03 13:32:24.715262 by Eclipse SUMO randomTrips.py v1.26.0
<configuration>
    <net-file value="src/sumo_setup_jurong/osm.net.xml.gz"/>
    <output-trip-file value="src/sumo_setup_jurong/trips.trips.xml"/>
    <route-file value="src/sumo_setup_jurong/precalculated_routes.full.rou.xml"/>
    <fringe-factor value="5"/>
    <end value="1800.0"/>
    <period value="1.0"/>
</configuration>
-->

<!-- generated on 2026-06-03T13:32:24.427461+01:00 by Eclipse SUMO duarouter 1.26.0
<duarouterConfiguration xmlns:xsi="http://www.w3.org/2001/XMLSchema-instance" xsi:noNamespaceSchemaLocation="http://sumo.dlr.de/xsd/duarouterConfiguration.xsd">

    <input>
        <net-file value="src/sumo_setup_jurong/osm.net.xml.gz"/>
        <route-files value="src/sumo_setup_jurong/trips.trips.xml"/>
    </input>

    <output>
        <output-file value="src/sumo_setup_jurong/precalculated_routes.full.rou.xml"/>
        <alternatives-output value="NUL"/>
    </output>

    <time>
        <begin value="0"/>
        <end value="1800.0"/>
    </time>

    <report>
        <no-warnings value="true"/>
        <ignore-errors value="true"/>
        <no-step-log value="true"/>
    </report>

</duarouterConfiguration>
-->

<routes xmlns:xsi="http://www.w3.org/2001/XMLSchema-instance" xsi:noNamespaceSchemaLocation="http://sumo.dlr.de/xsd/routes_file.xsd">
    <vehicle id="0" depart="0.00">
        <route edges="632085789#0 632091432 23101415 115826808 22885863 173896185#0 710449768 481621500#0 481621500#1 635196566 635196567 538291756 637042260#0 710423346 655224860#0 173896190#0 1350921217 481621498#0 74939755#0 74939755#2 639551506 639551505 482087300 649370259 251582019 173896188 173896191#0 251582020#0 636837354 22752823 481622706 822485836#0 482079524#0 75321746 251582017#0 635669709#0 635731203 251582180#0 481666058#0 635744967 251582041 537088484 75417918#0 635671716 655534927 537088485 383249800 633559307#0 642180751 537120333 754780682 -537120334 -721677172#2 -754779958 -544659692#1"/>
    </vehicle>
    <vehicle id="1" depart="1.00">
        <route edges="22887335#0 -646662798 -251582009 -645324784 -645324785 -645324786 -645323420 -692688485 173896190#0 1350921217 481621498#0 74939755#0 74939755#2 639551506 639551505 482087300 649370259 251582019 173896188 173896191#0 251582020#0 636837354 22752823 481622706 822485836#0 482079524#0 75321746 251582017#0 635669709#0 635731203 630396988 22752825 174556555 22752824 174556554"/>
    </vehicle>
    <vehicle id="2" depart="2.00">
        <route edges="636880513#0 537088399 537088402 635691785#0 636933620 673292233 481632958#0 539538358#0 22752824 174556553#0 635671225 655783819 383209584#0 481628924 75321745#0 635654402 635250011 482104103#0 173896187 539535924#0 651935224 639551504 706845933 710426488 512870414#0 633398759#0 74939750 637936927 655225986 481682748 1350921214 1350921216 650089053 632083258 789787656#0 538291758 635222363#0 710449766 710449765 173896183#0 173896183#1 631810329 44638542#0 632021439 265150799#0 632037842 632082209 265150801 632044978#0 115827240 479741892 635105716#0 638445660 654862929 639683020#0 639683021 1183482548#0 661640626 635108164"/>
    </vehicle>
    <vehicle id="3" depart="3.00">
        <route edges="-537088469 633398759#0 74939750 637936927 655225986 481682748 1350921214 1350921216 650089053 632083258 789787656#0 538291758 635222363#0 710449766 710449765 173896183#0 173896183#1 631810329 630396843 23101415 634101463#0 173896221#0 119933257#0 655591414 652014408#0 479743919#0 1490888250 1490888247 119933263 119933244 481656676 710482780 448937501#0 448937498 448937511 448937499 448937500#0 75009433#0 173767718"/>
    </vehicle>
    <vehicle id="4" depart="4.00">
        <route edges="632390289#2 632390288 744907219 635751294 654902921 635748328 175014497 383286542 325024309 383286530#0 175014490 482071860 482071861 482071862 482053310 482053314 482071863#0 325024310 325024307#0 667362634 482073397 482073401 482073403 741982929 741982928 325024311 630177946#0 536655855 512870465#0 75237303#0 781959230 482078546 75046508#0 536655841 173767738 22904186#0 493838353 639971225 649166944 389137324#0 635728085 641071643 690385032 690385034 690385031 481104682#0 537757453"/>
    </vehicle>
    <vehicle id="5" depart="5.00">
        <route edges="173768003#0 539328454 635302124 262961712 479774985#0 75334689 155949887 119937078 654882142 654882143 654882143-AddedOffRampEdge 1183482556 641559970#0 641559970#0-AddedOffRampEdge 641559970#1 641559970#2 632441012 479773438#0 635640262 173767670 173767669#0 634032445 634032444 647454853 651928518#0 539770667 74939767#0 539770680 482047351#0 482047350#0 539770676#0 633313079 633313082 635309558 539770675#0 543166480#0"/>
    </vehicle>
    <vehicle id="6" depart="6.00">
        <route edges="646704434 698233207 -646276591 -252391645#1 -646278257 -634906813#1 639302657#0 634906814 391434120 391434121#0 462818709 383249802#0 636912115 795211464 75326374 251582121#0 635581633 173896263 173896242 1390865427 481666060 709124946 251582042 636811031#0 173896240 251582043#0 503519459#0 635582279 633559308#0 482049276 75343366#0 635667679 709124945 481651355 539538347#0 75417916 539538351#0 251582040 636850503 636837409 709124944 630409404 174556555 22885269#0 655781911#0 655781908 672304902 768026924 481621522#0 636839120 709881794 173767748 636810379 75490158 223860423 223860420#0 251582004 709852440 251582003 99449562#0 635375132 188428281#0 465452704 482046449 533900072#0 -794600233 -22885259"/>
    </vehicle>
    <vehicle id="7" depart="7.00">
        <route edges="646634460 44638521 723121527#0 175878986#0 655524206 709510020 709510019 632064980 709510018 173896177 965679797 175959595 965679796 115709732 965679798 22887334 175878996#0 632350619 481632953 541148092#0 481632952 538291761#0 75501992 75501993 634906816#0 639302657#0 634906814 391434120 391434121#0 462818709 383249802#0 636912115 795211464 75326374 251582121#0 635581633 173896263 173896242 1390865427 481666060 709124946 251582042 636811031#0 173896240 251582043#0 503519459#0 635582279"/>
    </vehicle>
    <vehicle id="8" depart="8.00">
        <route edges="370373735#0 137465238#0 -163766151 163766422 1115408163 163767438 479337794 465527360 481856199 22752250#0 633800290 173767591#0 477967038 75310664#0 325024315 22752253 633299799#0 512870446 539184143#0 711668515 632391051#0 649819489 632391050 465283773#0 482075117 482073399 742160551 635691631#0 325024308 325024312#0 635689167 482053322 482053318 537148259 654880115 325024313#0 537148261 383286542 325024309 135956120"/>
    </vehicle>
    <vehicle id="9" depart="9.00">
        <route edges="75321745#0 635654402 635250011 482104103#0 173896187 173767589 173896164 635688085 635301958 537757465 74592172#0 709567667#0 173896168 251581989 635327430#0 537088439 265150734#0 482310372 709567665 383249806#0 175878993 481621505#0 481621504#0 481621502 481621501 541148090#0 538291763 551163895#0 632028170 173767821#0 541148081 639429694 965676167 173896296 965679797 22906413 541148074 655518547 390869281#0 760593096 115812039#0 676769688#0 906018952 390894636"/>
    </vehicle>
    <vehicle id="10" depart="10.00">
        <route edges="-673102732 -633563766 -673104102 -251582112 251582104#0 251582106 251582046 481651350#0 642160475#0 537120332#0 754781287 530089851#0 635667679 709124945 481651355 539538347#0 75417916 539538351#0 251582040 636850503 636837409 709124944 630409404 174556555 22752824 174556553#0 635671225 655783819 383209584#0 481628924 75321745#0 635654402 635250011 251582175#0 539535925 482059928 482059929 537088481 539535931#0 709881791 482059931 709881789 482059932#0 74592153 223860387#0 709881788 541130679 541130678 654735633 512991812#0 482089315 539526399#0 75045950 635323752 635323754#0 635323754#1 630800418#0 539519082 727865189 539519083#0 539519077 655143167 493838352#0 75046507 22903989 482088089 632695037 482088091 747389990#0 -747389989"/>
    </vehicle>
    <vehicle id="11" depart="11.00">
        <route edges="655232306 795202558 251582080#0 537088432 251582077#0 481651348#0 481651347#0 251582081 630410740 537088425 537088426 173896227#0 655784708 251582093 251581994 74592163 251581992#0 251581990 482057944#0 173896156 173896157#0 539535925 482059928 482059929 537088481 539535931#0 709881791 482059931 709881789 465437251#0 539535932 482059974 639864857 630176534#0"/>
    </vehicle>
    <vehicle id="12" depart="12.00">
        <route edges="536655892 479365899 536655891 632440479#0 479365907 479370440 479370441#0 536655896 632097389#0 479370443 481682734 176204394#0 632716926 162651217#0 173767621#0 631555766 782971910 173767618 631555769 631504109 1517469819 1517469820 251589103 173767613 723536165 482524703 482524702#0 481677141 635727600#0 637957497 75046512 655143686 632724010#0 22903989 536655841 539519079#0 173767586#0 652145500#0 727865188 538208753 656791027 641239650 654993196 539526398#0 482050136 512870435#0 709881787 75045951 541130676 709881786 755100185#0 223860388 74592160#0 223860389 482052150 481632949 173896155 482084641#0 173767589 173896164 635688085 635301958 537757465 22886342 173896244#0 649803483#0 823671146#0 826838090#0 649163300 251582063#0 537088421 251582087 251582088#0 642142067 146652600#0 537120339#0 655629998#0 537120336 644170942#0 754521371"/>
    </vehicle>
    <vehicle id="13" depart="13.00">
        <route edges="465270702#0 638476842 637937296 637937294#0 465270703#0 482073403 741982929 741982928 325024311 630177946#0 536655855 482310370 383286528 75237305#0 482075117 482073399 742160551 635691631#0 325024308 325024312#0 635689167 482053322 482053318 537148259 654880115 325024313#0 537148261 383286542 173767728#0 482088811 482086718 194654932#0 656456706 656456704 656456712#0 656456702#0 173767739 173767965 119941775 325024328#0 539328451"/>
    </vehicle>
    <vehicle id="14" depart="14.00">
        <route edges="652152115 652152114 632703919 652152112 482082378#0 173166864 617923187#0 175847336 482083280 482083282 712075703#0 536655846 536655845 482083284 482083287 668589553#0 668589554 660074445 482084331 512870466 173767742 632719735 265150809 654866555 539328450 633247277 633247278#0 173767739 173767965 173768003#0 539328454 635302124 262961712 479774985#0 75334689 155949887 119937078 654882142 654882143 654882143-AddedOffRampEdge 1183482555 632361584 654882141 652021784 44638538 631754161 265150727 632343903 44776103 632064980 709510018 32633651 541148074 655518547 538291760#0 173896261#0 541148073 655582456 115812038 882664390#0 632050299#0"/>
    </vehicle>
    <vehicle id="15" depart="15.00">
        <route edges="656745616#0 539351606 643865679#0 539351596 635322515#0 643413847 643413846#0 543166481#0 539770678"/>
    </vehicle>
    <vehicle id="16" depart="16.00">
        <route edges="635374657 635374656#0 635374655 635392773 194654916#0 649163256 635393381 635689170#0 325024326 325024310 325024307#0 667362634 482073397 482073401 482073403 741982929 741982928 325024311 630177946#0 536655855 512870465#0 75237303#0 781959230 482078546 75046508#0 536655841 539519079#0 173767586#0 652145500#0 727865188 538208753 656791027 641239650 654993196 539526398#0 482050136 512870435#0 709881787 75045951 541130676 709881786 739109105#0 709857773#2 223860418#0 223860429#0 655132607 737226991 710469844 639551513 639551512 482047359 512870456#0 537088479 223860419#0 635752305 635309558 539770675#0 543166480#0 -643413846#2 -643413845#1"/>
    </vehicle>
    <vehicle id="17" depart="17.00">
        <route edges="173896225 448937498 448937511 448937499 448937500#0 75009433#0 173767718 119933249 1415356910 1415356912 655165335#1 119933255#0 173896219 175878988 632060351 632060352#0 22885863 173896185#0 710449768 481621500#0 481621500#1 635196566 635196567 538291756 637042260#0 710423346 655224860#0 173896190#0 1350921217 481621498#0 74939755#0 74939755#2 639551506 639551505 482087300 649370259 251582190#0 635688085 635301958 537757465 22886342 173896244#0 649803483#0 823671146#0 826838090#0 649163300 251582063#0 537088421 251582087 251582088#0"/>
    </vehicle>
    <vehicle id="18" depart="18.00">
        <route edges="-646808303#1 -646229435#0 -646229439 70585703 1183482552 1183482551#0 1098725796 1183482547 173896223#0 1183482545 654864387 39351060#0 115827247 265150800 632076929 632077981 479742395#0 115826808 635720427#0 265150802 632036137 175878986#0 655524206 709510020 709510019 632064980 709510018 173896177 965679797 175959595 965679796 115709732 965679798 22887334 175878996#0"/>
    </vehicle>
    <vehicle id="19" depart="19.00">
        <route edges="-722309143 -640187459 692680066#0 146665363#0 636895150#0 223860485#0 223860389 482052150 481632949 173896155 482084641#0 173767589 173896188 173896191#0 251582020#0 636837354 22752823 481622706 822485836#0 482079524#0 75321746 251582017#0 635669709#0 635731203 251582180#0 481666058#0 635744967 251582041 537088484 75417918#0 635671716 655534927 537088485 75343365#0 481621508#0 709141518#0 635581635#0 537088486 173896238#0 251582038 173896236 636810404 537088487 173896263 75426127#0 709062488 75343344 251582036 481628926#0 251582034"/>
    </vehicle>
    <vehicle id="20" depart="20.00">
        <route edges="632060351 632060352#0 22885863 632091432 115826794#0 632021439 265150799#0 632037842 632082209 265150801 115827242#0 634032445 634032444 647454853 651928518#0 539770667 74939767#0 539770680 482047351#0 482047350#0 -539770679 640183073#0 539770678 633051551 465432867#0"/>
    </vehicle>
    <vehicle id="21" depart="21.00">
        <route edges="448937497#0 448937499 448937500#0 75009433#0 173767718 119933249 1415356910 1415356912 655165335#1 119933255#0 173896219 175878988 632060351 632060352#0 22885863 173896185#0 710449768 481621500#0 481621500#1 635196566 635196567 538291756 538291759 538291758 635222363#0 710449766 710449765 173896183#0"/>
    </vehicle>
    <vehicle id="22" depart="22.00">
        <route edges="22885272#0 643228432 635688103 709881793 22885268 251582030 664204424 251582007#0 251582004 709852440 251582003 99449562#0 635375132 188428281#0 465452704 482046449 537120325 75046519#0 845944167#0 537120320 641064082 654987962#0 641064081#0 482515561#0 105865867#0 632393485#0 632393487 660480249 740433886 658175075 740433887"/>
    </vehicle>
    <vehicle id="23" depart="23.00">
        <route edges="632377837 325024340 744907218 656675298#0 175014493 635391879#0 635392773 194654916#0 649163256 635393381 635689170#0 325024326 325024310 325024307#0 667362634 482073397 482073401 482073403 741982929 741982928 325024311 630177946#0 536655855 512870465#0 75237303#0 781959230 482078546 75046508#0 536655841 539519079#0 173767586#0 652145500#0 727865188 538208753 656791027 641239650 654993196 539526398#0 482050136 482050135 482089315 539526399#0 75045950 635323752 635323754#0 635323754#1 630800418#0"/>
    </vehicle>
    <vehicle id="24" depart="24.00">
        <route edges="1288585043#0 1451291102 882665664 1451291101#0 1497593554 1497593554-AddedOffRampEdge 1422595593#0 1422595591-AddedOnRampEdge 1422595591 1319627620 251603194#2-AddedOnRampEdge 251603194#2 649210207 632375854 654760610 654760611 135977024#0 135977023#0 747008628 747008629 44817060-AddedOnRampEdge 44817060 479561509 649563693 632344714 649565182 649564732 22885263 709881793 22885268 251582030 664204424 635391593#0 223860462 223860421 188428910#0 234962153 481621517#0 636934728#0"/>
    </vehicle>
    <vehicle id="25" depart="25.00">
        <route edges="798317951 632348724#0 479370442 632350399#0 640177944 699313061 710052106 741811979 632403474 632110082#0 536655899 632343158#0 536655896 632097389#0 479370443 481682734 176204394#0 632716926 162651217#0 173767621#0 631555766 782971910 173767618 631555769 631504109 1517469819 1517469820 251589103 173767613 723536165 482524703 482524702#0 481677141 635727600#0 637957497 75046512 655143686 632724010#0 22903989 482088089 632695037 482088091 1493036320 641145335 482080587#0 652152115 652152114 632703919 652152112 482082378#0 173166864 617923187#0 175847336 482083280 482083282 712075703#0 536655846 536655845 482083284 482083287 668589553#0 668589554 660074445 482084331 512870466 173767742 632719735 265150809 654866555 539328450 633247277 633247278#0 173767739 173767741#0 479535239 479563865 630398746#0 74860024 512870443 173896233 632406819#0 539418606 174886224 651931640#0 74592233#0 655137119#0 512870440 173767970#0 632405236#0 -632717746 -632434965#1 -632717745 120423211 907602903#1 252391651 632434965#0"/>
    </vehicle>
    <vehicle id="26" depart="26.00">
        <route edges="537120338#0 482056343 635750141#0 251582048 251582108 481869562#0 251582110 826324588 251582109#0 481869559 173896229#0 711252456#0 537088426 173896227#0 655784708 251582089#0 739677469 173896168 251581989 635327430#0"/>
    </vehicle>
    <vehicle id="27" depart="27.00">
        <route edges="655001661#0 173767727#0 727865191 481108650 481105398 690385031 481104682#0 537757453 482514040#0 173767726 481677141 635727600#0 637957497 75046512 655143686 632724010#0 22903989 482088089 632695037 482088091 1493036320 641145335 482080587#0 652152115 652152114 632703919 652152112 482082378#0 173166864 617923187#0 175847336 482083280 482083282 712075703#0 536655846 536655845 482083284 482083287 668589553#0 668589554 660074445 482084331 512870466 173767742 632719735 265150809 654866555 539328450 633247277 633247278#0 173767739 173767965 173768003#0 539328454 635302124 262961712 479774985#0 75334689 44638548 22903882#0 654860012 644087396"/>
    </vehicle>
    <vehicle id="28" depart="28.00">
        <route edges="173896236 251582169#0 251582120 251582116 75326369#0 481621506 795207462 251582119 709592302 540472416#0 22886449 383249801#0 175878993 481621505#0 481621504#0 672815612 -669866472#1 -634931134"/>
    </vehicle>
    <vehicle id="29" depart="29.00">
        <route edges="251582186#0 251582034 481651344#0 537088411 251582097 481632956#0 649167474 251582156#0 503519459#0 635582279 633559308#0 482049276 75343366#0 635667679 709124945 481651355 539538347#0 75417916 539538351#0 251582040 636850503 636837409 709124944 630409404 174556555 22885269#0 655781911#0 655781908 672304902 768026924 481621522#0 636839120 709881794 173767748 234962151#0"/>
    </vehicle>
    <vehicle id="30" depart="30.00">
        <route edges="173767668 655019299#0 537088472 74592179 537088479 223860419#0 635752305 635309558 539770675#0 635679564#0 640183073#0 539770678 633051551 465432867#0 649228480 512991818 482047352#0 482087296 512991822 654880294 654881322#0 635250643 512991814 75334701 121157363 1295636131 479773705 74592215"/>
    </vehicle>
    <vehicle id="31" depart="31.00">
        <route edges="673207939#0 668589554 660074445 482084331 512870466 173767742 632719735 265150809 654866555 539328450 633247277 633247278#0 173767739 173767965 173768003#0 539328454 635302124 262961712 479774985#0 75334689 155949887 119937078 654882142 654882143 654882143-AddedOffRampEdge 1183482555 632361584 654882141 652021784 44638538 631754161 265150872 265150800 632076929 632077981 479742395#0 115826808 635720427#0 265150802"/>
    </vehicle>
    <vehicle id="32" depart="32.00">
        <route edges="632444048 639122058 1449671712 632695199 632695198 482270670 481677142 173767621#0 631555766 782971910 173767618 631555769 631504109 135977022 1517469823 135977023#0 747008628 747008629 44817060-AddedOnRampEdge 44817060 479561509 649563693 632344714 649565182 649564732 479561512"/>
    </vehicle>
    <vehicle id="33" depart="33.00">
        <route edges="722555373 -644399837 539351597 512870421 512870460 738106033#0 482050571#0 536655840 641063777#0 641063777#1 642159202#0 482047361#0 482047360#0 482050135 482089315 539526399#0 75045950 635323752 635323754#0 635323754#1 630800418#0 539519082 727865189 539519083#0 539519077 655143167 493838352#0 75046507 173767588#0 632724009#0 667450562 632710849 632710850#0 383286528 75237305#0 482075117 482073399 742160551 635691631#0 325024308 325024312#0 635689167 482053322 482053318 537148259 654880115 325024313#0 537148261 383286542 173767728#0 482088811"/>
    </vehicle>
    <vehicle id="34" depart="34.00">
        <route edges="22885267#0 635688103 709881793 22885268 251582030 664204424 251582007#0 251582004 709852440 251582003 99449562#0 635375132 478876907#0 223860426 478876906#0 223860437#0 635362838#0 482107854 630390903 639864855#0 223860425 223860422 709857773#0 709857773#2 223860418#0 223860429#0 655132607 737226991 710469844 639551513 639551512 482047359 512870456#0 537088479 223860419#0 635752305 635309558 539770675#0 635679564#0 640183073#0 539770678 633051551 481682746#0 539770682 223860433#0"/>
    </vehicle>
    <vehicle id="35" depart="35.00">
        <route edges="537757452#0 635728085 641071643 690385032 690385034 690385031 481104682#0 537757453 482514040#0 173767726 481677141 635727600#0 637957497 75046512 655143686 632724010#0 22903989 482088089 632695037 482088091 1493036320 641145335 482080587#0 652152115 652152114 632703919 652152112 482082378#0 173166864 617923187#0 175847336 482083280 482083282 712075703#0 536655846 536655845 482083284 482083287 668589553#0 668589554 660074445 482084331 512870466 173767742 632719735 265150809 654866555 539328450 633247277 633247278#0 173767739 173767741#0 479535239 479563865 630398746#0 74860024 512870443 173896233 244362491#0 639994357 479568216 22903983"/>
    </vehicle>
    <vehicle id="36" depart="36.00">
        <route edges="539538349#0 75338409 75417916 539538351#0 251582040 636850503 636837409 709124944 630409404 174556555 22752824 174556553#0 635671225 655783819 383209584#0 481628924 75321745#0 635654402 635250011 251582175#0 539535925 482059928 482059929 537088481 539535931#0 709881791 482059931 709881789 482059932#0 74592153 223860387#0 709881788 541130679 541130678 654735633 465437250#0 654980887 709625374"/>
    </vehicle>
    <vehicle id="37" depart="37.00">
        <route edges="479330599#0 724320981#0 22752250#0 633800290 173767591#0 477967038 75310664#0 325024315 22752253 633299799#0 512870446 539184143#0 711668515 632391051#0 649819489 632391050 75046501#0 173767725 536655855 512870465#0 75237303#0 781959230 482078546 75046508#0 536655841 539519079#0 173767586#0 652145500#0 727865188 538208753 656791027 641239650 654993196 539526398#0 482050136 512870435#0 709881787 75045951 541130676 709881786 755100185#0 223860388 74592160#0 223860389 482052150 481632949 173896155 482084641#0 173767589 173896188 173896191#0 251582020#0 636837354 22752823 481622706 822485836#0 482079524#0 75321746 251582017#0 635669709#0 635731203 251582180#0 481666058#0 635744967 251582041 537088484 75417918#0 635671716 655534927 537088485 75343365#0 481621508#0 709141518#0 635581635#0 537088486 104515352 636811032#0 173896245"/>
    </vehicle>
    <vehicle id="38" depart="38.00">
        <route edges="913333166#1 1219971639 1474754579 482089865 673207938#0 824070958 668611375#0 668180598#0 535317694 741812434 635725980 536655848 536655847#0 652274162 641568874 635585660#0 175847335 538210924#0 632435680 74798117#3 635389192 635389191 641145336 538209847 482080585 482080584 200159360 539519078 173767586#0 652145500#0 727865188 538208753 656791027 641239650 654993196 539526398#0 482050136 512870435#0 709881787 75045951 541130676 709881786 755100185#0 223860388 74592160#0 223860389 482052150 481632949 173896155 482084641#0 173767589 173896188 173896191#0 251582020#0 636837354 22752823 481622706 822485836#0 482079524#0 75321746 251582017#0 635669709#0 635731203 251582180#0 481666058#0 635744967 251582041 537088484 75417918#0 635671716 655534927 537088485 75343365#0 481621508#0 709141518#0 635581635#0 537088486 104515352 636811032#0 173896245 537088416 533909547#0"/>
    </vehicle>
    <vehicle id="39" depart="39.00">
        <route edges="-669871426 22885694 664078228 639595023 538291733 74939747 633395266#0 537088469 74939755#0 74939755#2 639551506 639551505 482087300 649370259 251582190#0 635688085 635301958 537757465 22886342 173896244#0 649803483#0 823671146#0 826838090#0 649163300 251582063#0 537088421 251582087 251582088#0 642142067 146652600#0 537120339#0 655629998#0 -646680018 -644239660"/>
    </vehicle>
    <vehicle id="40" depart="40.00">
        <route edges="-754512371 710851871#0 -710851872#1 -646760923 -643445068 643444664 539582258 527442259#0 636839120 709881794 173767748 636810379 75490158 633270550#0 633270549 643228428 223860461 636806237#0 544836657 22885270 710411461 251603194#0 251603194#0-AddedOffRampEdge 251603194#1 251603194#2-AddedOnRampEdge 251603194#2 649210207 632375854 654760610 654760611 44818753#0 639122058 1449671712 632695199 632695198 631521877#0 536655903 632374546 533857536#0 639902413 726929302 536655894 536655900 632110081#0 426826458 632363045 632349482#0 536655892 479365899 536655891 632440479#0 479365907 479370440 632344042#0"/>
    </vehicle>
    <vehicle id="41" depart="41.00">
        <route edges="645134625#0 645134624 645134623 70585705#0 -696390235 -646808302#1 -646808303#1 -646229435#0 -646229439 70585703 1183482552 1183482551#0 1098725796 1183482547 173896223#0 1183482545 654864387 39351060#0 115827247 265150800 632076929 632077981 479742395#0 115826808 635720427#0 265150802 632036137 175878986#0 655524206 709510020 709510019 632064980 709510018 173896177 965679797 175959595 965679796 115709732 965679798 22887334 175878996#0 632350619 481632953 541148092#0 481632952 538291761#0 75501992 75501993 634906816#0 639302657#0 634906814 391434120 391434121#0 462818709 383249802#0 636912115 795211464 75326374 251582079 251582083#0 655232306 795202558 251582080#0 537088432 251582077#0 481651348#0"/>
    </vehicle>
    <vehicle id="42" depart="42.00">
        <route edges="-644640954#1 -673822332#2 -647104089#2 632768297#0 349526968#0 512870431 635305165#0 512870420 539351598#0 539770669 633301620#0 -642429520#1 -635584232#1 -539351602 539351604 512991822 654880294 654881322#0 635250643 512991814 75334701 121157363 1295636131 479773705 74592215 635320462 635320464 635320461 479774594#0 44628809 479774980#0 654864035 173767976#0 325024346 173767947#0 632717729 173767997#0 479119320"/>
    </vehicle>
    <vehicle id="43" depart="43.00">
        <route edges="888533023#0 1075757970 512870459#0 639863395#0 481682745#0 482047353 710473616#0 539770681 539770680 482047351#0 482047350#0 539770676#0 633313079 173767668 655019299#0 537088472 146665363#0 636895150#0 223860485#0 223860389 482052150 481632949 173896155 482084641#0 173767589 173896164 635688085 635301958 537757465 74592172#0 709567667#0 173896168 739677468 537088454#0 251582095#0 251582085#0 630410739 655786194#0 537088430"/>
    </vehicle>
    <vehicle id="44" depart="44.00">
        <route edges="754771618 617971353#0 726848062#0 617971347 617971346 75321764#0 479361798#0 479361799#0 633786772 162514282 325024315 22752253 633299799#0 512870446 539184143#0 711668515 632391051#0 649819489 632391050 75046501#0 173767725 536655855 512870465#0 75237303#0 781959230 482078546 75046508#0 536655841 539519079#0 173767586#0 652145500#0 727865188 538208753 656791027 641239650 654993196 465437247#0 632753818 146660825#0 654731435#0 539350751#0 641063778#1 173896278 512870429 726594916#1 512870422 827193715#0 656745616#0 539351606 655134854 656745618"/>
    </vehicle>
    <vehicle id="45" depart="45.00">
        <route edges="-173767859#1 481621504#0 481621502 481621501 541148090#0 538291763 551163895#0 632028170 173767821#0 541148081 639429694 965676167 673744842 44776104 226204633 226204636 265150726-AddedOnRampEdge 265150726 543183411 44638535 649629116 74592215 635320462 635320464 635320461 479774594#0 44628809 479774980#0 654864035 173767976#0 325024346 173767739 173767741#0 479535239 479552276#0 539418287 635754553#0"/>
    </vehicle>
    <vehicle id="46" depart="46.00">
        <route edges="633559627#0 537146058 727552332 537146055#0 638460748 481113344#0 481110992#0 637957497 75046512 655143686 632724010#0 22903989 536655841 539519079#0 173767586#0 652145500#0 727865188 538208753 656791027 641239650 654993196 539526398#0 482050136 512870435#0 709881787 75045951 541130676 709881786 755100185#0 223860388 74592160#0 223860389 482052150 22885368 633025984#0 251581982 512870426 173896149#0 655683673#0 173896153 537120326"/>
    </vehicle>
    <vehicle id="47" depart="47.00">
        <route edges="22885272#0 643228432 635688103 709881793 22885268 251582030 664204424 251582007#0 251582004 709852440 251582003 99449562#0 635375132 478876907#0 223860426 478876906#0 223860437#0 635362838#0 482107854 630390903 639864855#0 223860425 223860422 709857773#0 709857773#2 223860418#0 223860429#0 655132607 737226991 710469844 639551513 639551512 482047359 512870456#0 537088479 223860419#0 635752305 635309558 539770675#0 635679564#0 640183073#0 539770678 633051551 481682746#0 539770682 223860433#0 223860433#2 482047358#0 539770668 223860432#0 654875690 223860430 482087299#0 479741892 635105716#0 638445660 654862929 465433164#0 1183482553 -722222920 722222919 646229437 1183482567#0 -262826529 -1183482565#2 -1183482565#1 -1060425536 -642136698 1183482564#0 641559970#2 632441012"/>
    </vehicle>
    <vehicle id="48" depart="48.00">
        <route edges="-754787119 652149860#0 -649229695#1 754799144 465458232 721697911#0 754799487#0 265150811#3 666938529 754507953 636880513#0 537088399 537088402 635691785#0 636933620 673292233 481632958#0 539538358#0 22752824 174556553#0 635671225 655783819 383209584#0 481628924 75321745#0 635654402 635250011 251582175#0 539535925 482059928 482059929 537088481 539535931#0 709881791 482059931 709881789 482059932#0 74592153 223860422 709857773#0 709857773#2 223860418#0 223860429#0 655132607 737226991 710469844 639551513 639551512 482047359 512870456#0 537088479 223860419#0 635752305 635309558 539770675#0 635679564#0 640183073#0 539770678 633051551 481682746#0 539770682 539770681 539770680 482047351#0 482047350#0"/>
    </vehicle>
    <vehicle id="49" depart="49.00">