<?xml version="1.0" encoding="UTF-8"?>

<!-- generated on 2026-06-02 21:07:11.433997 by Eclipse SUMO randomTrips.py v1.26.0
<configuration>
    <net-file value="osm.net.xml.gz"/>
    <route-file value="precalculated_routes.rou.xml"/>
    <fringe-factor value="5"/>
    <end value="1800.0"/>
</configuration>
-->

<routes xmlns:xsi="http://www.w3.org/2001/XMLSchema-instance" xsi:noNamespaceSchemaLocation="http://sumo.dlr.de/xsd/routes_file.xsd">
    <trip id="0" depart="0.00" from="635367428" to="-537120337#0"/>
    <trip id="1" depart="1.00" from="22885524#1" to="173767741#1"/>
    <trip id="2" depart="2.00" from="644047741" to="637363882#3"/>
    <trip id="3" depart="3.00" from="481651355" to="-539770674"/>
    <trip id="4" depart="4.00" from="155949885" to="537120321#0"/>
    <trip id="5" depart="5.00" from="-537120337#1" to="1422595594#1"/>
    <trip id="6" depart="6.00" from="635634181#3" to="541148094#1"/>
    <trip id="7" depart="7.00" from="162514275#0" to="632391050"/>
    <trip id="8" depart="8.00" from="652537222#0" to="-1333303694#0"/>
    <trip id="9" depart="9.00" from="651935224" to="639869037#0"/>
    <trip id="10" depart="10.00" from="380710424#1" to="-906018952"/>
    <trip id="11" depart="11.00" from="75383261" to="350351316#2"/>
    <trip id="12" depart="12.00" from="-646376137#2" to="-646650072"/>
    <trip id="13" depart="13.00" from="652145499#1" to="642429520#1"/>
    <trip id="14" depart="14.00" from="539770658" to="767792760#0"/>
    <trip id="15" depart="15.00" from="465460543#0" to="544648580#1"/>
    <trip id="16" depart="16.00" from="655627860" to="633558218#0"/>
    <trip id="17" depart="17.00" from="673822332#1" to="632080303#1"/>
    <trip id="18" depart="18.00" from="640009472" to="-635526395#0"/>
    <trip id="19" depart="19.00" from="173767725" to="251581991#1"/>
    <trip id="20" depart="20.00" from="-645259771" to="173896199"/>
    <trip id="21" depart="21.00" from="-646663521#0" to="22887334"/>
    <trip id="22" depart="22.00" from="465270703#1" to="1497593552"/>
    <trip id="23" depart="23.00" from="223860485#0" to="747390007#1"/>
    <trip id="24" depart="24.00" from="635584232#1" to="632803105#0"/>
    <trip id="25" depart="25.00" from="1060425536" to="465523230#1"/>
    <trip id="26" depart="26.00" from="824070960" to="635374658#1"/>
    <trip id="27" depart="27.00" from="599693197#0" to="639124589"/>
    <trip id="28" depart="28.00" from="664299333#1" to="646461500"/>
    <trip id="29" depart="29.00" from="173767740" to="-544650072#0"/>
    <trip id="30" depart="30.00" from="251582170#1" to="22885274#1"/>
    <trip id="31" depart="31.00" from="1469108859#1" to="747777158#3"/>
    <trip id="32" depart="32.00" from="709567665" to="251582185#0"/>
    <trip id="33" depart="33.00" from="635691786#0" to="479561512"/>
    <trip id="34" depart="34.00" from="735137376" to="482522727#2"/>
    <trip id="35" depart="35.00" from="223860429#0" to="175847334#0"/>
    <trip id="36" depart="36.00" from="630177946#0" to="226204636"/>
    <trip id="37" depart="37.00" from="632359778" to="721901839#0"/>
    <trip id="38" depart="38.00" from="479562489#1" to="173767598#0"/>
    <trip id="39" depart="39.00" from="906018952" to="537127446"/>
    <trip id="40" depart="40.00" from="-646279826#0" to="-635635719"/>
    <trip id="41" depart="41.00" from="-647104089#2" to="634940240"/>
    <trip id="42" depart="42.00" from="646844362" to="481862792"/>
    <trip id="43" depart="43.00" from="888533024#0" to="539538351#0"/>
    <trip id="44" depart="44.00" from="765164079" to="671825487"/>
    <trip id="45" depart="45.00" from="-22887333#0" to="641205858#0"/>
    <trip id="46" depart="46.00" from="638914474#1" to="539770681"/>
    <trip id="47" depart="47.00" from="223860462" to="635391593#1"/>
    <trip id="48" depart="48.00" from="-652150146#0" to="482053314"/>
    <trip id="49" depart="49.00" from="482092104#1" to="75310664#1"/>
    <trip id="50" depart="50.00" from="709554583" to="22733414"/>
    <trip id="51" depart="51.00" from="536655915" to="119933247"/>
    <trip id="52" depart="52.00" from="727750106#0" to="692682868"/>
    <trip id="53" depart="53.00" from="251582040" to="635372399#1"/>
    <trip id="54" depart="54.00" from="632803104#0" to="-789741560"/>
    <trip id="55" depart="55.00" from="646176442#1" to="539771062#0"/>
    <trip id="56" depart="56.00" from="646650072" to="539538357#1"/>
    <trip id="57" depart="57.00" from="-100575780" to="265150726-AddedOnRampEdge"/>
    <trip id="58" depart="58.00" from="-465490255" to="744907218"/>
    <trip id="59" depart="59.00" from="709881786" to="655560490"/>
    <trip id="60" depart="60.00" from="251582088#0" to="-640070016"/>
    <trip id="61" depart="61.00" from="709857773#0" to="74939755#3"/>
    <trip id="62" depart="62.00" from="-646176438#0" to="529892588#1"/>
    <trip id="63" depart="63.00" from="-643444667#1" to="646139340#1"/>
    <trip id="64" depart="64.00" from="646229435#0" to="-676769688#1"/>
    <trip id="65" depart="65.00" from="512870456#1" to="543323708#1"/>
    <trip id="66" depart="66.00" from="223860430" to="696923532#0"/>
    <trip id="67" depart="67.00" from="481656681" to="1517469824"/>
    <trip id="68" depart="68.00" from="882665665" to="635639037"/>
    <trip id="69" depart="69.00" from="482052325" to="539350752"/>
    <trip id="70" depart="70.00" from="-669061276#0" to="173767752#1"/>
    <trip id="71" depart="71.00" from="349526968#1" to="632390119#0"/>
    <trip id="72" depart="72.00" from="173767746#1" to="173767668"/>
    <trip id="73" depart="73.00" from="-644154177" to="635295277#0"/>
    <trip id="74" depart="74.00" from="173767739" to="724472288#1"/>
    <trip id="75" depart="75.00" from="673207939#0" to="-644378849"/>
    <trip id="76" depart="76.00" from="173896191#1" to="636849702"/>
    <trip id="77" depart="77.00" from="747390011" to="631792772"/>
    <trip id="78" depart="78.00" from="512870439" to="646668464#0"/>
    <trip id="79" depart="79.00" from="652149860#0" to="1333303694#1"/>
    <trip id="80" depart="80.00" from="-646634685" to="482049274"/>
    <trip id="81" depart="81.00" from="481656681" to="512870429"/>
    <trip id="82" depart="82.00" from="642429520#1" to="636895150#0"/>
    <trip id="83" depart="83.00" from="798317951" to="-646655824"/>
    <trip id="84" depart="84.00" from="479744121#1" to="383209591#0"/>
    <trip id="85" depart="85.00" from="673822332#1" to="175879018"/>
    <trip id="86" depart="86.00" from="1209379212#0" to="482091079"/>
    <trip id="87" depart="87.00" from="481651355" to="22887337"/>
    <trip id="88" depart="88.00" from="175845928#1" to="738106033#4"/>
    <trip id="89" depart="89.00" from="482072795" to="672304902"/>
    <trip id="90" depart="90.00" from="543193906" to="-637363882#0"/>
    <trip id="91" depart="91.00" from="990662986" to="656456692#0"/>
    <trip id="92" depart="92.00" from="667296230#0" to="115709730#1"/>
    <trip id="93" depart="93.00" from="529549927#1" to="158232313#4"/>
    <trip id="94" depart="94.00" from="479741893#0" to="-640174119"/>
    <trip id="95" depart="95.00" from="465463322" to="798317953"/>
    <trip id="96" depart="96.00" from="223860431" to="646663523"/>
    <trip id="97" depart="97.00" from="482103447#0" to="481862795#2"/>
    <trip id="98" depart="98.00" from="588822447" to="641085569#1"/>
    <trip id="99" depart="99.00" from="755100185#0" to="632093860"/>
    <trip id="100" depart="100.00" from="540249251" to="644987910#0"/>
    <trip id="101" depart="101.00" from="537088416" to="668611373#1"/>
    <trip id="102" depart="102.00" from="1000646314736" to="75426127#0"/>
    <trip id="103" depart="103.00" from="-645260639" to="122886543#0"/>
    <trip id="104" depart="104.00" from="632440797#1" to="637042260#0"/>
    <trip id="105" depart="105.00" from="173896155" to="-667464241"/>
    <trip id="106" depart="106.00" from="711816247#0" to="175845933"/>
    <trip id="107" depart="107.00" from="632435680" to="633559626"/>
    <trip id="108" depart="108.00" from="481651344#0" to="632351943#1"/>
    <trip id="109" depart="109.00" from="539418280#0" to="747389990#3"/>
    <trip id="110" depart="110.00" from="1422595591-AddedOnRampEdge" to="640345703#1"/>
    <trip id="111" depart="111.00" from="173896200#0" to="479562385"/>
    <trip id="112" depart="112.00" from="636875118#0" to="251582065#1"/>
    <trip id="113" depart="113.00" from="251582176#0" to="645010858#2"/>
    <trip id="114" depart="114.00" from="-644378851" to="482522725#3"/>
    <trip id="115" depart="115.00" from="97638568#0" to="888533024#0"/>
    <trip id="116" depart="116.00" from="-644404697#1" to="158232313#0"/>
    <trip id="117" depart="117.00" from="223860431" to="747183705"/>
    <trip id="118" depart="118.00" from="710411461" to="709581086#1"/>
    <trip id="119" depart="119.00" from="656246556" to="639989340"/>
    <trip id="120" depart="120.00" from="633025984#0" to="822381566#0"/>
    <trip id="121" depart="121.00" from="635679564#0" to="-1469128686"/>
    <trip id="122" depart="122.00" from="654882141" to="251582063#0"/>
    <trip id="123" depart="123.00" from="635754552" to="747490769#0"/>
    <trip id="124" depart="124.00" from="-646834012" to="551163895#1"/>
    <trip id="125" depart="125.00" from="641103757" to="146658738#1"/>
    <trip id="126" depart="126.00" from="635320462" to="22752250#2"/>
    <trip id="127" depart="127.00" from="664323657" to="-646389533#0"/>
    <trip id="128" depart="128.00" from="481656681" to="22887331#8"/>
    <trip id="129" depart="129.00" from="635328399#0" to="223860461"/>
    <trip id="130" depart="130.00" from="644379750" to="544648579#1"/>
    <trip id="131" depart="131.00" from="481882513" to="-22885367#0"/>
    <trip id="132" depart="132.00" from="-644469189#1" to="710421982"/>
    <trip id="133" depart="133.00" from="724472288#0" to="542142414#0"/>
    <trip id="134" depart="134.00" from="656456697" to="632349482#0"/>
    <trip id="135" depart="135.00" from="-754522935#1" to="-674586410#0"/>
    <trip id="136" depart="136.00" from="251582092" to="722266522"/>
    <trip id="137" depart="137.00" from="647122079#1" to="671825487"/>
    <trip id="138" depart="138.00" from="722555377#1" to="1513889340"/>
    <trip id="139" depart="139.00" from="646653480" to="710449768"/>
    <trip id="140" depart="140.00" from="479774985#1" to="633564691"/>
    <trip id="141" depart="141.00" from="-796868226#2" to="74592160#0"/>
    <trip id="142" depart="142.00" from="677665695#1" to="782984026"/>
    <trip id="143" depart="143.00" from="652553355" to="709881791"/>
    <trip id="144" depart="144.00" from="305406961#0" to="74592179"/>
    <trip id="145" depart="145.00" from="649803483#1" to="673296567"/>
    <trip id="146" depart="146.00" from="652553355" to="22885268"/>
    <trip id="147" depart="147.00" from="646758048" to="-647104089#1"/>
    <trip id="148" depart="148.00" from="703938933#0" to="670349600#2"/>
    <trip id="149" depart="149.00" from="162651217#1" to="654864035"/>
    <trip id="150" depart="150.00" from="482519378#2" to="251582094#0"/>
    <trip id="151" depart="151.00" from="647097916" to="173767976#1"/>
    <trip id="152" depart="152.00" from="-482522724#1" to="135977022"/>
    <trip id="153" depart="153.00" from="265150807" to="673744842"/>
    <trip id="154" depart="154.00" from="635374659" to="479745635#1"/>
    <trip id="155" depart="155.00" from="795171837" to="539770676#1"/>
    <trip id="156" depart="156.00" from="747493825" to="-664323656"/>
    <trip id="157" depart="157.00" from="760700181" to="119933244"/>
    <trip id="158" depart="158.00" from="754732310#1" to="22885253"/>
    <trip id="159" depart="159.00" from="-646950157#0" to="482053308"/>
    <trip id="160" depart="160.00" from="642418505#0" to="251582179"/>
    <trip id="161" depart="161.00" from="632737520#2" to="537148259"/>
    <trip id="162" depart="162.00" from="465527366#0" to="632076448#0"/>
    <trip id="163" depart="163.00" from="176174487#1" to="640064677"/>
    <trip id="164" depart="164.00" from="-104127527#1" to="741812434"/>
    <trip id="165" depart="165.00" from="539770676#2" to="641121012#2"/>
    <trip id="166" depart="166.00" from="644404697#0" to="636857076"/>
    <trip id="167" depart="167.00" from="448937510#0" to="-644170937#0"/>
    <trip id="168" depart="168.00" from="636806237#0" to="305406961#0"/>
    <trip id="169" depart="169.00" from="251582162#0" to="664323656"/>
    <trip id="170" depart="170.00" from="641239650" to="251582067"/>
    <trip id="171" depart="171.00" from="251582097" to="481621503#1"/>
    <trip id="172" depart="172.00" from="479744120#2" to="251582044"/>
    <trip id="173" depart="173.00" from="-673863649" to="481666062#1"/>
    <trip id="174" depart="174.00" from="747494504#1" to="637937294#0"/>
    <trip id="175" depart="175.00" from="723723120#2" to="633276671#0"/>
    <trip id="176" depart="176.00" from="251582055#1" to="543170128#1"/>
    <trip id="177" depart="177.00" from="-100575780" to="244362489#0"/>
    <trip id="178" depart="178.00" from="482043038#1" to="632110081#1"/>
    <trip id="179" depart="179.00" from="635689170#1" to="512870370"/>
    <trip id="180" depart="180.00" from="482059932#1" to="158232313#4"/>
    <trip id="181" depart="181.00" from="512870445#0" to="722555379"/>
    <trip id="182" depart="182.00" from="647122079#1" to="115826803#0"/>
    <trip id="183" depart="183.00" from="-646154244" to="538291760#1"/>
    <trip id="184" depart="184.00" from="635302124" to="33543757#1"/>
    <trip id="185" depart="185.00" from="654902921" to="645010850#1"/>
    <trip id="186" depart="186.00" from="636889260#0" to="173767749#1"/>
    <trip id="187" depart="187.00" from="135957332#1" to="-537088419"/>
    <trip id="188" depart="188.00" from="174556552" to="512991813#1"/>
    <trip id="189" depart="189.00" from="668180599#0" to="-644421109"/>
    <trip id="190" depart="190.00" from="481621522#1" to="635250643"/>
    <trip id="191" depart="191.00" from="122886544#1" to="639863395#2"/>
    <trip id="192" depart="192.00" from="535317695" to="175540476#0"/>
    <trip id="193" depart="193.00" from="635691925#1" to="-120487399#0"/>
    <trip id="194" depart="194.00" from="645010858#0" to="646314734"/>
    <trip id="195" depart="195.00" from="116688900#1" to="75343335#0"/>
    <trip id="196" depart="196.00" from="538291760#0" to="-636877053#1"/>
    <trip id="197" depart="197.00" from="175840035#2" to="664323660"/>
    <trip id="198" depart="198.00" from="482108868" to="649167474"/>
    <trip id="199" depart="199.00" from="636840621" to="822485836#1"/>
    <trip id="200" depart="200.00" from="632444048" to="75046500#0"/>
    <trip id="201" depart="201.00" from="641204032" to="537088488"/>
    <trip id="202" depart="202.00" from="655654640" to="543170128#1"/>
    <trip id="203" depart="203.00" from="722309142" to="644421109"/>
    <trip id="204" depart="204.00" from="512870453#2" to="223860425"/>
    <trip id="205" depart="205.00" from="175014498#0" to="635341773#1"/>
    <trip id="206" depart="206.00" from="646226504" to="539418287"/>
    <trip id="207" depart="207.00" from="634906816#0" to="22886355#0"/>
    <trip id="208" depart="208.00" from="22885272#0" to="256160610#0"/>
    <trip id="209" depart="209.00" from="539770694#0" to="-722555377#0"/>
    <trip id="210" depart="210.00" from="173767821#1" to="639739598#0"/>
    <trip id="211" depart="211.00" from="640026529#1" to="-642159201#1"/>
    <trip id="212" depart="212.00" from="481102224#0" to="541130679"/>
    <trip id="213" depart="213.00" from="481651348#1" to="724320981#1"/>
    <trip id="214" depart="214.00" from="632350619" to="639857011#0"/>
    <trip id="215" depart="215.00" from="670467806" to="646226322"/>
    <trip id="216" depart="216.00" from="465500903#0" to="-120487399#0"/>
    <trip id="217" depart="217.00" from="429038722#1" to="645164488"/>
    <trip id="218" depart="218.00" from="669049623#3" to="75237305#0"/>
    <trip id="219" depart="219.00" from="481651343" to="644977668#0"/>
    <trip id="220" depart="220.00" from="541148091#0" to="632723089"/>
    <trip id="221" depart="221.00" from="162514275#0" to="173767598#1"/>
    <trip id="222" depart="222.00" from="482050135" to="-539643343"/>
    <trip id="223" depart="223.00" from="32633651" to="637959071"/>
    <trip id="224" depart="224.00" from="479745952#0" to="1117721907#0"/>
    <trip id="225" depart="225.00" from="507733239#0" to="-674848156#1"/>
    <trip id="226" depart="226.00" from="633588681#0" to="-539351606"/>
    <trip id="227" depart="227.00" from="479370441#1" to="630410739"/>
    <trip id="228" depart="228.00" from="-537146058" to="635401705#1"/>
    <trip id="229" depart="229.00" from="-711816248" to="493838352#1"/>
    <trip id="230" depart="230.00" from="-636854776#0" to="465523228#0"/>
    <trip id="231" depart="231.00" from="1469108864" to="265150810#6"/>
    <trip id="232" depart="232.00" from="646154245" to="465523228#0"/>
    <trip id="233" depart="233.00" from="645144082" to="655591414"/>
    <trip id="234" depart="234.00" from="-465458236#1" to="539771062#1"/>
    <trip id="235" depart="235.00" from="635635719" to="646650613#0"/>
    <trip id="236" depart="236.00" from="75046519#0" to="1422595594#1"/>
    <trip id="237" depart="237.00" from="-466290516#0" to="-767792760#0"/>
    <trip id="238" depart="238.00" from="-673102732" to="636850502"/>
    <trip id="239" depart="239.00" from="630406836#1" to="173767586#0"/>
    <trip id="240" depart="240.00" from="639906937#1" to="646229437"/>
    <trip id="241" depart="241.00" from="1098725795#1" to="632768296"/>
    <trip id="242" depart="242.00" from="644987916" to="-664309689"/>
    <trip id="243" depart="243.00" from="654986072#0" to="754760999#2"/>
    <trip id="244" depart="244.00" from="75406314" to="479569026"/>
    <trip id="245" depart="245.00" from="641063776#1" to="-645134625#0"/>
    <trip id="246" depart="246.00" from="639611112" to="634940237"/>
    <trip id="247" depart="247.00" from="-646668613" to="646350338"/>
    <trip id="248" depart="248.00" from="668589553#1" to="632711132"/>
    <trip id="249" depart="249.00" from="-669061276#0" to="796868226#0"/>
    <trip id="250" depart="250.00" from="646668464#0" to="39959155#1"/>
    <trip id="251" depart="251.00" from="481885841#1" to="465432870#0"/>
    <trip id="252" depart="252.00" from="537088469" to="383249806#1"/>
    <trip id="253" depart="253.00" from="668180598#1" to="654987962#0"/>
    <trip id="254" depart="254.00" from="-646785922" to="75426127#0"/>
    <trip id="255" depart="255.00" from="635327054#1" to="655233246"/>
    <trip id="256" depart="256.00" from="640064676#2" to="482055189#0"/>
    <trip id="257" depart="257.00" from="22885260#1" to="652014408#0"/>
    <trip id="258" depart="258.00" from="539770676#0" to="529888773#0"/>
    <trip id="259" depart="259.00" from="482049275#2" to="642664981"/>
    <trip id="260" depart="260.00" from="22752252#0" to="668180598#1"/>
    <trip id="261" depart="261.00" from="655680114" to="-646226323"/>
    <trip id="262" depart="262.00" from="710449764" to="175097815"/>
    <trip id="263" depart="263.00" from="490159262#0" to="632907855#1"/>
    <trip id="264" depart="264.00" from="465463322" to="-539418422"/>
    <trip id="265" depart="265.00" from="1469108866" to="647104089#2"/>
    <trip id="266" depart="266.00" from="383209582#0" to="709857773#2"/>
    <trip id="267" depart="267.00" from="639935833" to="22887331#5"/>
    <trip id="268" depart="268.00" from="-22885524#2" to="75009438#1"/>
    <trip id="269" depart="269.00" from="-646173640" to="641145335"/>
    <trip id="270" depart="270.00" from="639611112" to="635581633"/>
    <trip id="271" depart="271.00" from="532415673#1" to="646831287#2"/>
    <trip id="272" depart="272.00" from="-646383243#0" to="173767718"/>
    <trip id="273" depart="273.00" from="639683020#1" to="251582100"/>
    <trip id="274" depart="274.00" from="632242992" to="512870465#0"/>
    <trip id="275" depart="275.00" from="539535932" to="481992322#1"/>
    <trip id="276" depart="276.00" from="639992938" to="22885524#1"/>
    <trip id="277" depart="277.00" from="175847337#1" to="-669062175"/>
    <trip id="278" depart="278.00" from="1219971638#1" to="-667296230#0"/>
    <trip id="279" depart="279.00" from="539755123#1" to="646156700"/>
    <trip id="280" depart="280.00" from="119933257#0" to="162727871#0"/>
    <trip id="281" depart="281.00" from="786418678" to="539519079#1"/>
    <trip id="282" depart="282.00" from="22903881" to="-646668613"/>
    <trip id="283" depart="283.00" from="122886543#1" to="173767976#0"/>
    <trip id="284" depart="284.00" from="1183482556" to="-251582009"/>
    <trip id="285" depart="285.00" from="539643343" to="22886353"/>
    <trip id="286" depart="286.00" from="771803374#0" to="575456856"/>
    <trip id="287" depart="287.00" from="639869037#0" to="-673822332#2"/>
    <trip id="288" depart="288.00" from="704607957#1" to="632044978#1"/>
    <trip id="289" depart="289.00" from="512870372#1" to="482079524#0"/>
    <trip id="290" depart="290.00" from="119933246" to="-637961982"/>
    <trip id="291" depart="291.00" from="747777158#0" to="515740367"/>
    <trip id="292" depart="292.00" from="655013708" to="479745942"/>
    <trip id="293" depart="293.00" from="-644421109" to="635250011"/>
    <trip id="294" depart="294.00" from="-639275216" to="-754796901"/>
    <trip id="295" depart="295.00" from="630396843" to="251582086"/>
    <trip id="296" depart="296.00" from="87936189#3" to="-664961871#0"/>
    <trip id="297" depart="297.00" from="646222152" to="632753818"/>
    <trip id="298" depart="298.00" from="646831287#1" to="173767917"/>
    <trip id="299" depart="299.00" from="539418279#1" to="482101760#1"/>
    <trip id="300" depart="300.00" from="482071862" to="671428531#2"/>
    <trip id="301" depart="301.00" from="824531526" to="251582094#1"/>
    <trip id="302" depart="302.00" from="644239661#0" to="75009433#1"/>
    <trip id="303" depart="303.00" from="1460399170#0" to="1517469817"/>
    <trip id="304" depart="304.00" from="635744967" to="1016569737#0"/>
    <trip id="305" depart="305.00" from="115826803#0" to="-644849091"/>
    <trip id="306" depart="306.00" from="-107577825#3" to="482101760#1"/>
    <trip id="307" depart="307.00" from="632419550#0" to="251582010"/>
    <trip id="308" depart="308.00" from="173767859#0" to="640014564#1"/>
    <trip id="309" depart="309.00" from="639992941" to="482514040#0"/>
    <trip id="310" depart="310.00" from="639429694" to="738191577#1"/>
    <trip id="311" depart="311.00" from="646758052#0" to="634677430#0"/>
    <trip id="312" depart="312.00" from="635749290" to="747286659#1"/>
    <trip id="313" depart="313.00" from="481677142" to="541148092#1"/>
    <trip id="314" depart="314.00" from="635582279" to="726509065"/>
    <trip id="315" depart="315.00" from="655527052#1" to="-644381572"/>
    <trip id="316" depart="316.00" from="107577827#1" to="251582106"/>
    <trip id="317" depart="317.00" from="644987929#0" to="631544540"/>
    <trip id="318" depart="318.00" from="23101518#1" to="-670654381"/>
    <trip id="319" depart="319.00" from="639551505" to="639906931#1"/>
    <trip id="320" depart="320.00" from="74798139#2" to="537088421"/>
    <trip id="321" depart="321.00" from="533909548#0" to="-645324786"/>
    <trip id="322" depart="322.00" from="-632768297#0" to="482050137#1"/>
    <trip id="323" depart="323.00" from="256160607#0" to="176174503#1"/>
    <trip id="324" depart="324.00" from="-646329926" to="754508358#1"/>
    <trip id="325" depart="325.00" from="656544151" to="632064916"/>
    <trip id="326" depart="326.00" from="636877053#0" to="22885367#3"/>
    <trip id="327" depart="327.00" from="512870424" to="635654680"/>
    <trip id="328" depart="328.00" from="736751617#1" to="120423243"/>
    <trip id="329" depart="329.00" from="632368644" to="635327430#1"/>
    <trip id="330" depart="330.00" from="533892781" to="-646376137#1"/>
    <trip id="331" depart="331.00" from="390894636" to="325024341#1"/>
    <trip id="332" depart="332.00" from="636854590" to="669871876#2"/>
    <trip id="333" depart="333.00" from="265150811#1" to="639704994#0"/>
    <trip id="334" depart="334.00" from="23005091#1" to="74860022#1"/>
    <trip id="335" depart="335.00" from="654862931" to="543329196#1"/>
    <trip id="336" depart="336.00" from="482103446#1" to="251582184#1"/>
    <trip id="337" depart="337.00" from="256160610#1" to="758012394#0"/>
    <trip id="338" depart="338.00" from="479745637" to="538291752"/>
    <trip id="339" depart="339.00" from="823170357" to="635720427#0"/>
    <trip id="340" depart="340.00" from="540472396#0" to="481629426#0"/>
    <trip id="341" depart="341.00" from="120423251" to="452040407#1"/>
    <trip id="342" depart="342.00" from="645325551" to="634853624"/>
    <trip id="343" depart="343.00" from="646149128#0" to="146652600#1"/>
    <trip id="344" depart="344.00" from="543170128#1" to="744547937"/>
    <trip id="345" depart="345.00" from="482052325" to="639869037#1"/>
    <trip id="346" depart="346.00" from="-669062511" to="767792760#0"/>
    <trip id="347" depart="347.00" from="632803104#0" to="173896276"/>
    <trip id="348" depart="348.00" from="544626855#0" to="-646461503"/>
    <trip id="349" depart="349.00" from="826838090#0" to="727750101#1"/>
    <trip id="350" depart="350.00" from="482522725#1" to="-664947817#0"/>
    <trip id="351" depart="351.00" from="655781911#0" to="537088401#0"/>
    <trip id="352" depart="352.00" from="641077968#0" to="537120338#2"/>
    <trip id="353" depart="353.00" from="22885367#1" to="655783819"/>
    <trip id="354" depart="354.00" from="794606103#0" to="175097814"/>
    <trip id="355" depart="355.00" from="543329196#0" to="477965757"/>
    <trip id="356" depart="356.00" from="738191577#1" to="537120336"/>
    <trip id="357" depart="357.00" from="709881791" to="673296567"/>
    <trip id="358" depart="358.00" from="22885700#1" to="646758052#1"/>
    <trip id="359" depart="359.00" from="481627684" to="747389990#0"/>
    <trip id="360" depart="360.00" from="537088489#0" to="654883591#1"/>
    <trip id="361" depart="361.00" from="22892522" to="251582060#0"/>
    <trip id="362" depart="362.00" from="632376522#2" to="98284572#1"/>
    <trip id="363" depart="363.00" from="530089852#1" to="-754786553#0"/>
    <trip id="364" depart="364.00" from="539770677" to="390869280#0"/>
    <trip id="365" depart="365.00" from="544626851" to="541148073"/>
    <trip id="366" depart="366.00" from="482104103#1" to="262823306#1"/>
    <trip id="367" depart="367.00" from="1206759830#1" to="639865230#1"/>
    <trip id="368" depart="368.00" from="631756050" to="173896202#0"/>
    <trip id="369" depart="369.00" from="646467568" to="-635339974"/>
    <trip id="370" depart="370.00" from="644652025" to="640000612#0"/>
    <trip id="371" depart="371.00" from="654723735#0" to="479326470#2"/>
    <trip id="372" depart="372.00" from="635754553#1" to="654886017"/>
    <trip id="373" depart="373.00" from="794761135" to="536655885"/>
    <trip id="374" depart="374.00" from="-632690146#0" to="537088443#0"/>
    <trip id="375" depart="375.00" from="632393487" to="690385035#1"/>
    <trip id="376" depart="376.00" from="709141518#0" to="482078549"/>
    <trip id="377" depart="377.00" from="539418606" to="482519378#3"/>
    <trip id="378" depart="378.00" from="635689170#1" to="-823170687"/>
    <trip id="379" depart="379.00" from="512870408" to="75501993"/>
    <trip id="380" depart="380.00" from="350351316#2" to="639683021"/>
    <trip id="381" depart="381.00" from="635634181#3" to="668180599#0"/>
    <trip id="382" depart="382.00" from="668816529#1" to="670467806"/>
    <trip id="383" depart="383.00" from="465499693#0" to="251582196#0"/>
    <trip id="384" depart="384.00" from="641145335" to="645371971"/>
    <trip id="385" depart="385.00" from="703938933#1" to="-632690149#1"/>
    <trip id="386" depart="386.00" from="-643439959#1" to="635295277#1"/>
    <trip id="387" depart="387.00" from="738106033#2" to="906018952"/>
    <trip id="388" depart="388.00" from="644974469" to="482052325"/>
    <trip id="389" depart="389.00" from="-646650612" to="635323754#0"/>
    <trip id="390" depart="390.00" from="704607957#0" to="482087295#2"/>
    <trip id="391" depart="391.00" from="639856645#0" to="723687439#0"/>
    <trip id="392" depart="392.00" from="-747389994" to="539582260#0"/>
    <trip id="393" depart="393.00" from="173896225" to="727750101#0"/>
    <trip id="394" depart="394.00" from="-737180255#0" to="482534353"/>
    <trip id="395" depart="395.00" from="175959597#0" to="194654932#1"/>
    <trip id="396" depart="396.00" from="-22885367#3" to="649823880#1"/>
    <trip id="397" depart="397.00" from="723536166#0" to="637937296"/>
    <trip id="398" depart="398.00" from="1000646314736" to="482083284"/>
    <trip id="399" depart="399.00" from="383286546#1" to="632379204"/>
    <trip id="400" depart="400.00" from="635341773#1" to="481882514"/>
    <trip id="401" depart="401.00" from="175845932" to="664301143"/>
    <trip id="402" depart="402.00" from="135957332#1" to="478876908#1"/>
    <trip id="403" depart="403.00" from="528461138#1" to="173896234#1"/>
    <trip id="404" depart="404.00" from="631770165#0" to="632060352#1"/>
    <trip id="405" depart="405.00" from="827193715#1" to="251582042"/>
    <trip id="406" depart="406.00" from="789785533#1" to="635723481#1"/>
    <trip id="407" depart="407.00" from="22885488#2" to="631504452#0"/>
    <trip id="408" depart="408.00" from="639302657#0" to="644469189#1"/>
    <trip id="409" depart="409.00" from="-635719864#1" to="632753818"/>
    <trip id="410" depart="410.00" from="536655851" to="723723120#2"/>
    <trip id="411" depart="411.00" from="22904186#1" to="647454853"/>
    <trip id="412" depart="412.00" from="632768097#1" to="44638542#1"/>
    <trip id="413" depart="413.00" from="637938538#1" to="641205858#1"/>
    <trip id="414" depart="414.00" from="635731829" to="656544156"/>