<?xml version="1.0" encoding="UTF-8"?>

<!-- generated on 2026-06-03 15:35:41.251636 by Eclipse SUMO randomTrips.py v1.26.0
<configuration>
    <net-file value="osm.net.xml.gz"/>
    <route-file value="precalculated_routes.full.rou.xml"/>
    <fringe-factor value="5"/>
    <end value="1800.0"/>
    <period value="1.0"/>
</configuration>
-->

<!-- generated on 2026-06-03T15:35:40.648368+01:00 by Eclipse SUMO duarouter 1.26.0
<duarouterConfiguration xmlns:xsi="http://www.w3.org/2001/XMLSchema-instance" xsi:noNamespaceSchemaLocation="http://sumo.dlr.de/xsd/duarouterConfiguration.xsd">

    <input>
        <net-file value="osm.net.xml.gz"/>
        <route-files value="trips.trips.xml"/>
    </input>

    <output>
        <output-file value="precalculated_routes.full.rou.xml"/>
        <alternatives-output value="NUL"/>
    </output>

    <time>
        <begin value="0"/>
        <end value="1800.0"/>
    </time>

    <report>
        <no-warnings value="true"/>
        <ignore-errors value="true"/>
        <no-step-log value="true"/>
    </report>

</duarouterConfiguration>
-->

<routes xmlns:xsi="http://www.w3.org/2001/XMLSchema-instance" xsi:noNamespaceSchemaLocation="http://sumo.dlr.de/xsd/routes_file.xsd">
    <vehicle id="0" depart="0.00">
        <route edges="22797957#6 22797957#7 -22797957#7 -22797957#6 -22797957#5 -22797957#4 -22797957#3 -22797957#2 -22797957#1 172879420#0 172879420#1 229763249#2 127464700#0 127464700#1 -127464700#1 -127464700#0"/>
    </vehicle>
    <vehicle id="1" depart="1.00">
        <route edges="-59198110#1 -59198110#0 -1145602705 1070838875#0 1070838875#1 225932290#1 127844301#0 4908400#0 4908400#1 184540880#0 184540880#1 1067065527#0 1067065527#1 1067065527#3 173342311 1115884115#0 1115884115#1 207327840#0 207327840#1 1052210027#0 1052210027#2 121782624 30152218 173319135#0 173319135#2 173319135#3 173319135#4 195186213#0 127843731 127843727 195186211#1 723293438#0 723293438#1 723293438#2 723293438#3 723293438#4 723293438#5 723293438#6 723293438#7 723293438#8 723293438#9 723293438#10 723293438#11 723293438#12 723293438#13 229774175#0 229774175#1 229774175#2 229774175#3 229774175#4 229774175#5 229774175#6 229774175#7 229773671#0 229773671#1 229773671#2 229773671#3 229773672#0 229773672#1 -59174469#0 -59174425#0"/>
    </vehicle>
    <vehicle id="2" depart="2.00">
        <route edges="30766539 240528099 240528100#0 240528100#1 240528100#2 200319998 200319988#0 200319988#1 200319988#2 200319988#3 200319988#4 200319988#5 200319988#6 156453759#0 156453759#1 156453759#2 156453759#3 156453759#4 156453759#5 -723910041#2 -723910041#1 -723910041#0 -723906845#2 -723906845#1 -723906845#0 -30802356#8 -30802356#7 -30802356#6 -30802356#5 -30802356#4 -30802356#3 -30802356#2 -30802356#1 -30802356#0 -173229536#8 -173229536#7 -173229536#6 -173229536#5 -173229536#4 -173229536#3 -173229536#2 -173229536#1 -173229536#0 -30802567#3 -30802567#2 24476434#0 24476434#1 24476434#2"/>
    </vehicle>
    <vehicle id="3" depart="3.00">
        <route edges="59198110#2 -59198239#2 -59198239#1 -59198239#0 194267354#5 1140792813#0 1070838875#0 1070838875#1 225932290#1 128491120 1070685886#0 1070685886#1 1070685886#2 1070685886#3 1070685886#4 1097512813#1 1097512813#2 1097512813#3 28947684#1 28947684#2 28947684#3 28947684#4 28947684#5 28947684#6 28947684#7 28947684#8 28947684#9 28947684#10 28947684#11 28947684#12 28947684#13 28947684#14 28947684#15 28947684#16 28947684#17 28947684#18 28947684#19 28947684#20 28947684#21 237008301 175226612 1385100458 59210908#0 59210908#1 59210908#2 59210908#3 59210908#5 172879420#0 172879420#1 229763249#2 -1115884123#3 -1115884123#2 -1115884123#0 -1066877323#1 -1066877323#0 -22797964#5 -22797964#4"/>
    </vehicle>
    <vehicle id="4" depart="4.00">
        <route edges="-4908397 4908397 127844301#0 4908400#0 4908400#1 184540880#0 184540880#1 29293357#0 29293357#1 29293357#3 149216901#0 149216901#1 149216901#2 59217085#0 59217085#1 59217085#2 59217085#3 59217085#4 59217085#5 146582103#9 146582103#10 146582103#11 146582103#12"/>
    </vehicle>
    <vehicle id="5" depart="5.00">
        <route edges="-114916733#1 227323115#0 227323115#1 194267360#2 194267360#2-AddedOffRampEdge 194267360#4 194267360#6 30680699 1424222211 1424222212#0 1424222212#1 1424222212#2 1424222212#3 1424222212#4 1424222212#6 1424222212#7 1424222212#8 1424222212#9 1051962151#0 1051962151#2 1051962151#3 1051962151#4 1051962151#5 1051962151#6 1051962151#8 10496447 30833629#0 30833629#1 30833629#3 30833629#4 30833629#5 30833629#6 30833629#7 30833629#8 30833629#9 30833629#10 30833629#11 30833629#12 30833629#13 30833629#14 162395720#0 162395720#2 644299936#0 644299936#1 644299937#0 644299937#1 156453763#0 156453763#1 156453763#2 156453763#3 1066854240 1066854251#1 175226668#2 -25093057#11 -25093057#10 -25093057#9 -25093057#8 -25093057#7 -25093057#6 30801981#0 30801981#1 30801981#2 -439956434"/>
    </vehicle>
    <vehicle id="6" depart="6.00">
        <route edges="229773669#2 -59174556 59174556 -229773669#2 59174546 34104237 229773658#1 59174426#0 59174426#1 25081372#1 25081372#2 25081372#3 25081372#4 25081372#5 25081372#6 25081372#7 25081372#8 30802677#0 30802677#1 30802677#2 30802677#3 30802677#4 30802677#5 30802677#6 30802677#8 184541689 162384814#0 162384814#1 162384813#0 162384812#0 162384812#2"/>
    </vehicle>
    <vehicle id="7" depart="7.00">
        <route edges="-516478141 -24476455#2 -24476455#1 229775864#3 229775864#4 229775864#5 229775864#6 229775864#7 229775864#8 229775864#9 200319988#0 200319988#1 200319988#2 200319988#3 200319988#4 200319988#5 200319988#6 156453759#0 156453759#1 156453759#2 156453759#3 156453759#4 156453759#5 -723910041#2 -723910041#1 -723910041#0 -723906845#2 -723906845#1 -723906845#0 -30802356#8 -30802356#7 -30802356#6 -30802356#5 -30802356#4 -30802356#3 -30802356#2 -30802356#1 -30802356#0 175226647#0 175226647#1 175226647#2 175226647#3"/>
    </vehicle>
    <vehicle id="8" depart="8.00">
        <route edges="42675466#0 42675466#1 42675466#2 42675466#3 42675466#4 42675466#5 -30833629#4 -30833629#3 -30833629#2 -30833629#0 -10496447 -1051962151#8 -1051962151#7 -1051962151#5 -1051962151#4 -1051962151#3 -1051962151#2 -1051962151#1 127844296#0 127844296#1 127844296#3 127844296#4 127844296#6 127844296#7 127844310 986663372#0 986663372#1 986663372#2 4493469#0 4493469#1 4493469#2 4493469#3 4493469#4 4493469#5 4493469#6 4493469#7 4493469#8 4493469#9 164954109 141524709 141524690#0 141524690#1 141524690#2 723613422#0 723613422#1 141524683 164954104#0 164954104#1 164954104#2 164954104#3 164954104#4 979798588#0 979798588#1 1060440000#0 1060440000#1 -1185021199 -22797963#8 -22797963#7 -22797963#6 -22797963#5 -22797963#4 -22797963#3 -22797963#2 -22797963#1 -22797963#0 -1055371426#1"/>
    </vehicle>
    <vehicle id="9" depart="9.00">
        <route edges="42673591#3 42673626#0 42673626#1 59168039#0 59168039#1 59168039#2 -173229536#2 -173229536#1 -173229536#0 -30802567#3 -30802567#2 -30802567#1 -239164201#5 -239164201#3 -239164201#2 -239164201#1 -184541689 -30802677#8 -30802677#7 -30802677#5 -30802677#4 -30802677#3 -30802677#2 -30802677#1 -30802677#0 -723293438#13 -723293438#12 -723293438#11 -723293438#10 -723293438#9 -723293438#8 -723293438#7 -723293438#6 -723293438#5 -723293438#4 -723293438#3 -723293438#2 -723293438#1 -723293438#0 302881844#0 302881844#2 127843740 127843742 1060946273#0 195186214#1 195186214#2 195186214#3 723617931#0 723617931#2 173319089 22036897 571143714#0 571143714#1 571143714#2 571143714#3 42710139 707995792#0 26295675#0"/>
    </vehicle>
    <vehicle id="10" depart="10.00">
        <route edges="-838493520#4 -838493520#3 59221397#3 59221397#4 59221397#5 34104257#3 34104257#4 34104257#5 195185508#0 195185508#1 1209463467#1 1066681082 1105983762#0 1105983762#1 1105983762#2 33613407#0 33613407#1 33613407#2 33613407#3 33613407#4 33613407#5 1059317065#0 1059317065#1 1059317065#2 1059317065#3 1059317065#4 1059317065#5 246265573#0 246265573#1 1115849033#0 1115849033#1 1115849033#2 30152218 173319135#0 173319135#2 173319135#3 173319135#4 195186213#0 127843731 127843727 195186211#1 723293438#0 723293438#1 723293438#2 723293438#3 723293438#4 723293438#5 723293438#6 723293438#7 723293438#8 723293438#9 723293438#10 723293438#11 723293438#12 723293438#13 25109457#0 25109457#1 25109457#2 25109457#3 25109457#4 25109457#5 25109457#6 229775895#0 229775895#1 229775895#2 229775895#3 229775895#4 229775895#5 229775895#6 229775895#7 229775895#8 229775895#9 229775895#10 229775895#11 229775895#12 229775895#14 229775895#15 195187468 131710757#0 131710757#1 131710757#2 131710757#3 25091486#0 25091486#1 25091486#2 25091486#3 25091486#4 25091486#5 25091486#6 25091486#7 25091486#8 30802356#1 30802356#2 30802356#3 30802356#4 30802356#5 30802356#6 30802356#7 30802356#8 30802356#9 723906845#1 723906845#2 723910041#0 723910041#1 723910041#2 1067065528 723910038#0 723910038#1 723910038#2 723910038#3 723910038#4 723910038#5 34104264#0 34104264#1 34104264#2 -30833078#2"/>
    </vehicle>
    <vehicle id="11" depart="11.00">
        <route edges="707995793#0 707995793#1 -42710139 1052210026 237008293#0 237008293#1 237008293#2 237008293#3 237008293#4 237008293#5 237008293#6 237008293#7 237008293#8 237008293#9 723615457 1105983760#0 1105983760#1 1105983760#2 1105983760#3 1017722456#0 1017722456#1 1017722456#2 1017722456#3 1017722456#4 1017722456#5 1017722456#6 173319050#0 173319050#1 173319050#2 173319050#3 173319050#4 173319050#5 173319050#6 173319050#7 173319050#8 59221335#0 59221335#1 59221335#2 -978688277#2 -978688277#1 -978688277#0"/>
    </vehicle>
    <vehicle id="12" depart="12.00">
        <route edges="59168004#1 -59167923#0 -25081384#2 -25081384#1 -25081384#0 -1011023638#4 -1011023638#3 -1011023638#2 -1011023638#1 -1011023638#0 -30802567#3 -30802567#2 -30802567#1 -239164201#5 -239164201#3 -239164201#2 -239164201#1 -184541689 -30802677#8 -30802677#7 -30802677#5 -30802677#4 -30802677#3 -30802677#2 -30802677#1 -30802677#0 229774175#0 229774175#1 229774175#2 229774175#3 229774175#4 229774175#5 229774175#6 229774175#7 229774175#8 175598156#0 175598156#1"/>
    </vehicle>
    <vehicle id="13" depart="13.00">
        <route edges="42673626#4 -59167925 25081384#2 25081384#3 25081384#4 25081384#5 25081384#6 25081384#7 25081384#8 25081384#9 -175226647#10 -175226647#9 -175226647#8 30801982#0 30801982#1 30801982#2 30801982#3"/>
    </vehicle>
    <vehicle id="14" depart="14.00">
        <route edges="149224251 1010952829#2 1010952826 146582102#0 146582102#1 146582102#2 146582102#3 838429000#10 144821732#4 144821732#5 144821732#6 144821732#7 144821732#8 978001495 146586725#1 146586725#2 978001490 237008293#7 237008293#8 237008293#9 723615457 1105983760#0 1105983760#1 1105983760#2 1105983760#3 1017722456#0 1017722456#1 1017722456#2 1017722456#3 1017722456#4 1017722456#5 1017722456#6 173319050#0 173319050#1 173319050#2 173319050#3 -838493520#5 -838493520#4 -838493520#3 -838493520#2 -838493520#1 -838493520#0 59221385#3 838493518#0"/>
    </vehicle>
    <vehicle id="15" depart="15.00">
        <route edges="1052210023 1052616823 30887527#0 30887527#1 30887527#2 30887527#3 33611941 146586686#0 146586686#1 146586686#2 237008295#0 237008295#1 237008295#2 237008295#3 237008295#4 237008295#5 237008295#6 237008295#7-AddedOnRampEdge 237008295#7 237008295#8 237008295#9 173323015#0 173323015#1 33612467#0-AddedOnRampEdge 33612467#0 33612467#1 237008296#0 237008296#1 237008296#2 237008296#3 237008296#4 164954106 141524709 141524690#0 141524690#1 141524690#2 723613422#0 723613422#1 141524683 164954104#0 164954104#1 164954104#2 164954104#3 164954104#4 979798588#0 979798588#1 1060440000#0 1060440000#1 1185021198#0 1185021198#1 1185021198#2 59210688#0 59210688#1 59210688#2 -164955452#3 -164955452#2 -164955452#1 164955452#1 164955452#2"/>
    </vehicle>
    <vehicle id="16" depart="16.00">
        <route edges="519901056#2 519901056#3 -233756209#2 -519901047 -22797963#6 -22797963#5 -22797963#4 -22797963#3 -22797963#2 -22797963#1 -22797963#0 -1055371425#2 -1055371425#1 -1055371425#0 -1055437679 173323027#0 173323027#1 173323027#3 173323025 1467640121#4 105063687#0 105063687#1 105063687#3 723613425#0 723613425#1 723613425#2 723613424#0 723613424#2 1364036023 30834115#0 30834115#1 30834115#2 30834115#3 33612453 1010952827 144821732#0 144821732#1 144821732#2 144821732#3 144821732#4 144821732#5 144821732#6 144821732#7 144821732#8 144821732#9 144821732#10 144821732#11 146586700 29309201#0 29309201#1 29309201#2 29309201#3 29309201#4 30803431 194789123#0 194789123#1 194789123#2 194789123#3 30803437#0 30803437#1 30803437#2 30803437#4 121903978 121903976 194789115"/>
    </vehicle>
    <vehicle id="17" depart="17.00">
        <route edges="59174495 -42673840#1 -297690068#2 -297690068#1 -297690068#0 -59174407#4 -59174407#3 -59174407#2 -59174407#1 -59174407#0 24476426#0 24476426#1 24476426#2 1058329401 -184541684#3 -184541684#2 -184541684#1 -184541684#0 229706839#0 229706839#1 229706839#2 302881844#0 302881844#2 127843740 127843742 1060946273#0 195186214#1 195186214#2 195186214#3 723617931#0 723617931#2 173319089 22036897 571143714#0 571143714#1 571143714#2 571143714#3 1052210026 237008293#0 237008293#1 237008293#2 237008293#3 237008293#4 237008293#5 237008293#6 237008293#7 237008293#8 237008293#9 723615457 1105983760#0 1105983760#1 1105983760#2 1105983760#3 1017722456#0 1017722456#1 1017722456#2 1017722456#3 1017722456#4 1017722456#5 1017722456#6 173319050#0 173319050#1 173319050#2 173319050#3 173319050#4 173319050#5 173319050#6 173319050#7 173319050#8 173319050#9 173319050#10 173319050#11"/>
    </vehicle>
    <vehicle id="18" depart="18.00">
        <route edges="25091600#4 169219993#0 169219993#1 169219993#2 169219993#3 169219993#4 175598133#0 175598133#1 175598133#2 175598133#3 175598133#4 175598133#5 175598133#6 34104298#0 34104298#1 -1067065528 -723910041#2 -723910041#1 -723910041#0 -723906845#2 -723906845#1 -723906845#0 -30802356#8 -30802356#7 -30802356#6 -30802356#5 -30802356#4 -30802356#3 -30802356#2 -30802356#1 -30802356#0 -173229536#8 -173229536#7 -173229536#6 -173229536#5 -173229536#4 -173229536#3 -173229536#2 -173229536#1 -173229536#0 -173229518#13 -173229518#12 -173229518#11 -173229518#10 -173229518#9 -173229518#8 -173229518#7 -173229518#6 -173229518#5 -173229518#4 -173229518#3 -173229518#2 -173229518#0 175226609#0 175226609#1 175226609#3 1015784061#0 4231222 675930560#0 675930560#1 675930560#2 675930560#3 675930560#4 675930560#5 127844297#0 127844297#1 1145602707#1 1145602707#3 172805320#0 172805320#2 172805320#3 172805320#3-AddedOffRampEdge 172805320#4 172805320#6 1424222213 127844310 986663372#0 986663372#1 986663372#2 -38758392#2 -38758392#1 -149226236#4 -149226236#3 -149226236#2 -149226236#1"/>
    </vehicle>
    <vehicle id="19" depart="19.00">
        <route edges="-59167908#3 -59167908#2 59167908#2 59167908#3 59167908#4 59167908#5 -127843743#11 -127843743#10 -127843743#9 -127843743#8 -127843743#7 -127843743#6 -127843743#5 -127843743#4 -127843743#3 -127843743#2 -127843743#1 -127843743#0 -685281062#0 175226609#3 1015784061#0 4231222 675930560#0 675930560#1 675930560#2 675930560#3 675930560#4 675930560#5 4908397 128491120 1070685886#0 1070685886#1 1070685886#2 1070685886#3 1070685886#4 1097512813#1 1097512813#2 1097512813#3 28947684#1 28947684#2 28947684#3 28947684#4 28947684#5 28947684#6 28947684#7 28947684#8 28947684#9 28947684#10 28947684#11 28947684#12 28947684#13 28947684#14 28947684#15 28947684#16 59198156 30803182#1 -107125043#1 -107125043#0 -59216992#2 -59216992#0"/>
    </vehicle>
    <vehicle id="20" depart="20.00">
        <route edges="-175425319#9 -175425319#8 -175425319#7 -175425319#6 -175425319#5 -175425319#4 -175425319#3 -175425319#2 -175425319#1 -175425319#0 727275043#0 727275043#2 1421078386 175425320#0 175425320#1 175425320#2 -131710750#14 -131710750#13 -131710750#12 -131710750#11 -131710750#10 -131710750#9 -131710750#8 -131710750#7 -131710750#6 -131710750#5 -131710750#4 -131710750#3 -131710750#1 -131710750#0 -195187468 34104260#0 34104260#1 34104260#2 175277980#0 175277980#1 59174497#0 59174497#1 59174485 -59174485"/>
    </vehicle>
    <vehicle id="21" depart="21.00">
        <route edges="-229775895#10 -229775895#9 -229775895#8 -229775895#7 -229775895#6 -229775895#5 -229775895#4 -229775895#3 -229775895#2 -229775895#1 -229775895#0 -25109457#6 -25109457#5 -25109457#4 -25109457#3 -25109457#2 -25109457#1 -25109457#0 -723293438#13 -723293438#12 -723293438#11 -723293438#10 -723293438#9 -723293438#8 -723293438#7 -723293438#6 -723293438#5 -723293438#4 -723293438#3 -723293438#2 -723293438#1 -723293438#0 302881844#0 302881844#2 127843740 127843742 1060946273#0 195186214#1 195186214#2 195186214#3 723617931#0 723617931#2 173319089 22036897 571143714#0 571143714#1 571143714#2 571143714#3 1052210026 237008293#0 237008293#1 237008293#2 146586686#0 146586686#1 146586686#2 237008295#0 237008295#1 237008295#2 237008295#3 237008295#4 237008295#5 237008295#6 237008295#7-AddedOnRampEdge 237008295#7 237008295#8 237008295#9 173323015#0 173323015#1 33612467#0-AddedOnRampEdge 33612467#0 33612467#1 237008296#0 237008296#1 237008296#2 237008296#3 237008296#4 164954106 141524709 141524690#0 141524690#1 141524690#2 723613422#0 723613422#1 141524683 164954104#0 164954104#1 164954104#2 164954104#3 164954104#4 979798588#0 979798588#1 1060440000#0 1060440000#1 1185021198#0 1185021198#1 -59210780#2"/>
    </vehicle>
    <vehicle id="22" depart="22.00">
        <route edges="1017722456#5 1017722456#6 173319050#0 34104257#5 195185508#0 195185508#1 1209463467#1 1066681082 1105983762#0 1105983762#1 1105983762#2 33613407#0 33613407#1 33613407#2 33613407#3 33613407#4 33613407#5 1059317065#0 1059317065#1 1059317065#2 1059317065#3 1059317065#4 1059317065#5 246265573#0 246265573#1 1115849033#0 1115849033#1 1115849033#2 30152218 30152235 121782621#0 121782621#1 121782621#2 121782621#3 121782621#4 1181110240#0 1181110240#2 1060946258#0 1060946258#1 1060946258#2 1060946258#3 1362527643#0 1362527643#2 128490592#0 128490592#1 128490592#2 128490592#3 128490592#4 128490592#5 128490592#6 128490592#7 29549788#0 127844297#0 127844297#1 1145602707#1 1145602707#3 172805320#0 172805320#2 172805320#3 172805320#3-AddedOffRampEdge 172805320#4 172805320#6 1424222212#0 1424222212#1 1424222212#2 1424222212#3 1424222212#4 1424222212#6 1424222212#7 1424222212#8 1424222212#9 1051962151#0 1051962151#2 1051962151#3 1051962151#4 1051962151#5 1051962151#6 1051962151#8 10496447 30833629#0 30833629#1 30833629#3 30833629#4 30833629#5 30833629#6 30833629#7 30833629#8 30833629#9 30833629#10 521057966#0 -521057964#1 -521057964#0 -363706081#8 -363706081#7 -521057844#8 -521057844#7 -521057844#6"/>
    </vehicle>
    <vehicle id="23" depart="23.00">
        <route edges="-59185347#1 -59185347#0 190438900#2 190438900#3 190438900#4 127844296#3 127844296#4 127844296#6 127844296#7 127844310 30680699 194267354#0 194267354#1 194267354#2 194267354#4 194267354#5 1140792813#0 1070838875#0 1070838875#1 225932290#1 127844301#0 4908400#0 4908400#1 184540880#0 184540880#1 1067065527#0 1067065527#1 1067065527#3 173342299#0 173342299#1 173342299#2 173342299#3 173342299#4 571143520#0 571143520#1 571143520#2 571143520#3 571143520#4 571143520#5 571143520#6 571143520#7 571143520#8 144821732#6 144821732#7 144821732#8 978001495 146586725#1 146586725#2 978001490 237008293#7 237008293#8 237008293#9 723615457 1105983760#0 1364036025#3 -1107279345#1 -1107279345#0 -30888443#8 -30888443#7 -30888443#6 -30888443#5 -30888443#4 -30888443#3 -30888443#2 -30888443#1 -543798053 -543798052#0 59221342#1 -59221375#0 59221375#0"/>
    </vehicle>
    <vehicle id="24" depart="24.00">
        <route edges="229773655#2 229773655#3 229773655#4 229773655#5 229773655#7 175425303 1421078386 175425320#0 175425320#1 175425320#2 -131710750#14 -131710750#13 -131710750#12 -131710750#11 -131710750#10 -131710750#9 -131710750#8 -131710750#7 -131710750#6 -131710750#5 -131710750#4 -131710750#3 -131710750#1 -131710750#0 -195187468 -229775895#15 -229775895#14 -229775895#13 -229775895#11 -229775895#10 -229775895#9 -229775895#8 -229775895#7 -229775895#6 -229775895#5 -229775895#4 -229775895#3 -229775895#2 -229775895#1 -229775895#0 -25109457#6 -25109457#5 -25109457#4 -25109457#3 1355304175#0 1355304175#1 30802677#1 30802677#2 30802677#3 30802677#4 30802677#5 30802677#6 30802677#8 184541689"/>
    </vehicle>
    <vehicle id="25" depart="25.00">
        <route edges="-30833629#6 30833629#6 30833629#7 30833629#8 30833629#9 30833629#10 30833629#11 30833629#12 30833629#13 30833629#14 162395720#0 162395720#2 644299936#0 644299936#1 644299937#0 644299937#1 156453763#0 156453763#1 156453763#2 156453763#3 1066854240 1066854251#1 175226668#2 42501522#0 42501522#1 42501522#3 -175226647#10 -175226647#9 -175226647#8 30801982#0"/>
    </vehicle>
    <vehicle id="26" depart="26.00">
        <route edges="-30802673#5 -30802673#4 -30802673#3 -30802673#2 59174529#0 59174529#1 30802677#5 30802677#6 30802677#8 184541689 239164201#0 239164201#2 239164201#3 239164201#4 30802567#0 30802567#2 30802567#3 173229536#0 173229536#1 173229536#2 173229536#3 173229536#4 173229536#5 173229536#6 173229536#7 173229536#8 30802356#0 25091486#9 25091486#10 25091486#11 25091486#12 25091486#13 25091486#14 25091486#15 25091486#16 25091486#17 1386781909#0 1386781909#1 1386781909#2 1386781909#3 1386781909#4 1386781909#5 1386781909#6 1386781909#7 1386781909#8 156662669#0 156662669#1 156662669#2 156662669#3 173229540#1 173229540#3 173229540#4 173229540#5 1052934209#0 1052934209#1 1177277469 136977671#0 136977671#1 173229547#0 173229547#1 173229547#2 1060416441"/>
    </vehicle>
    <vehicle id="27" depart="27.00">
        <route edges="978677579#4 978677579#5 -978677579#5 -978677579#4 -978677579#3 -978677579#2 -978677579#1 -978677579#0 172180388#3 172180388#4 -978740038#2 -978740038#1 -978740038#0 -978688277#2 -978688277#1 -978688277#0 -59221385#7 -59221385#6 -59221385#5 -59221385#4 -59221385#3 -59221385#2 -59221385#1 -59221385#0 34104257#1 34104257#2 34104257#3 34104257#4 34104257#5 195185508#0 195185508#1 1209463467#1 1066681082 1105983762#0 1105983762#1 1105983762#2 33613407#0 33613407#1 33613407#2 33613407#3 33613407#4 33613407#5 1059317065#0 1059317065#1 1059317065#2 1059317065#3 1059317065#4 1059317065#5 246265573#0 246265573#1 1115849033#0 1115849033#1 1115849033#2 30152218 173319135#0 173319135#2 173319135#3 173319135#4 195186213#0 127843731 127843727 195186211#1 723293438#0 723293438#1 723293438#2 723293438#3 723293438#4 723293438#5 723293438#6 723293438#7 723293438#8 723293438#9 723293438#10 723293438#11 723293438#12 723293438#13 229774175#0 229774175#1 229774175#2 229774175#3 229774175#4 229774175#5 229774175#6 229774175#7 229773671#0 229773671#1 229773671#2 229773658#0"/>
    </vehicle>
    <vehicle id="28" depart="28.00">
        <route edges="162384815#1 184541689 239164201#0 239164201#2 239164201#3 239164201#4 30802567#0 30802567#2 30802567#3 173229536#0 173229536#1 173229536#2 173229536#3 173229536#4 173229536#5 173229536#6 173229536#7 173229536#8 30802356#0 30802356#1 30802356#2 30802356#3 30802356#4 30802356#5 30802356#6 30802356#7 30802356#8 30802356#9 723906845#1 723906845#2 723910041#0 723910041#1 723910041#2 1067065528 723910038#0 723910038#1 723910038#2 723910038#3 723910038#4 723910038#5 -561198195#1 -561198195#0 24804693#0 24804693#1 24804766"/>
    </vehicle>
    <vehicle id="29" depart="29.00">
        <route edges="-59167909#2 59167918#0 59167918#1 59167918#2 30802356#6 30802356#7 30802356#8 30802356#9 723906845#1 723906845#2 723910041#0 723910041#1 723910041#2 1067065528 -1067065528 1067065529 723910483#0 723910483#1 25109088 175425302#0 175425302#1 175425302#2 175425302#3 175425302#4 175425302#5 175425302#7 175425320#0 175425320#1 175425320#2 -131710750#14 -131710750#13"/>
    </vehicle>
    <vehicle id="30" depart="30.00">
        <route edges="-59217120#1 59217150 194789123#3 -29171637 33071300#0 33071300#1 33071300#2 30887527#0 30887527#1 30887527#2 30887527#3 33611941 146586686#0 146586686#1 146586686#2 237008295#0 237008295#1 237008295#2 237008295#3 237008295#4 237008295#5 237008295#6 237008295#7-AddedOnRampEdge 237008295#7 237008295#8 237008295#9 173323015#0 173323015#1 33612467#0-AddedOnRampEdge 33612467#0 33612467#1 237008296#0 237008296#1 237008296#2 237008296#3 237008296#4 164954106 33612557#0 33612557#0-AddedOffRampEdge 146689290 146581680#3 146581680#4 146581680#5 -164955326#1 -59198235"/>
    </vehicle>
    <vehicle id="31" depart="31.00">
        <route edges="-42748070#0 229763235#1 229763235#2 229763235#3 229763235#4 1358102352#0 1358102352#1 146586683#1 146586683#2 146586683#3 146586683#4 146586683#5 146586683#6 146586683#7 146586683#8 144821732#7 144821732#8 144821732#9 144821732#10 144821732#11 146586700 1059317065#0 1059317065#1 1059317065#2 1059317065#3 1059317065#4 1059317065#5 146586684#0 146586684#1 146586684#2 609879680#0 609879680#1 609879683"/>
    </vehicle>
    <vehicle id="32" depart="32.00">
        <route edges="59181723#0 59181723#1 59181723#2 -30834572 184541681#5 184541681#7 30152235 121782621#0 121782621#1 121782621#2 121782621#3 121782621#4 1181110240#0 1181110240#2 1060946258#0 1060946258#1 1060946258#2 1060946258#3 1362527643#0 1362527643#2 128490592#0 128490592#1 128490592#2 128490592#3 128490592#4 128490592#5 128490592#6 128490592#7 29549788#0 127844297#0 127844297#1 1145602707#1 1145602707#3 172805320#0 172805320#2 172805320#3 172805320#3-AddedOffRampEdge 172805320#4 172805320#6 1424222213 127844310 986663372#0 986663372#1 986663372#2 4493469#0 4493469#1 4493469#2 4493469#3 4493469#4 4493469#5 -297861297#0 164954105#3 164954105#4 164954105#5 -60210912"/>
    </vehicle>
    <vehicle id="33" depart="33.00">
        <route edges="229775864#1 229775864#2 229775864#3 229775864#4 229775864#5 229775864#6 229775864#7 229775864#8 229775864#9 200319988#0 200319988#1 200319988#2 200319988#3 200319988#4 200319988#5 200319988#6 156453759#0 156453759#1 156453759#2 156453759#3 156453759#4 156453759#5 -723910041#2 -723910041#1 -723910041#0 -723906845#2 -723906845#1 -723906845#0 -30802356#8 -30802356#7 -30802356#6 -30802356#5 -30802356#4 -30802356#3 -30802356#2 -30802356#1 -30802356#0 -173229536#8 -173229536#7 -173229536#6 -173229536#5 -173229536#4 -173229536#3 -173229536#2 -173229536#1 -173229536#0 -173229518#13 -173229518#12 -173229518#11 -173229518#10 -173229518#9 -173229518#8 -173229518#7 -173229518#6 -173229518#5 -173229518#4 -173229518#3 -173229518#2 -173229518#0 173229521 127843403#0 127843403#1 127843403#2 127843403#3 127843403#4 127843403#5 127843403#7 127843403#8 173323017 29293357#0 29293357#1 29293357#3 149216901#0 149216901#1 149216901#2 59217085#0 59217085#1 59217085#2 59217085#3 59217085#4 59217085#5 146582103#9 1366528939 237008295#7-AddedOnRampEdge 237008295#7 237008295#8 237008295#9 173323015#0 173323015#1 33612467#0-AddedOnRampEdge 33612467#0 146581668 107125065#2"/>
    </vehicle>
    <vehicle id="34" depart="34.00">
        <route edges="59210877#3 59210877#4 -59210796#1 -59210796#0 30753010#2 30753010#3 30753010#4 30753010#5 30753010#6 30753010#7 107125046#8 107125046#10 107125046#11 107125046#12 146581672 238406331#1-AddedOnRampEdge 238406331#1 33612453 1010952827 144821732#0 144821732#1 144821732#2 144821732#3 144821732#4 144821732#5 144821732#6 144821732#7 144821732#8 144821732#9 144821732#10 144821732#11 146586700 1059317065#0 1059317065#1 1059317065#2 1059317065#3 1059317065#4 1059317065#5 246265573#0 246265573#1 1115849033#0 1115849033#1 1115849033#2 30152218 173319135#0 173319135#2 173319135#3 173319135#4 195186213#0 127843731 127843727 195186211#1 723293438#0 723293438#1 723293438#2 723293438#3 723293438#4 723293438#5 723293438#6 723293438#7 723293438#8 723293438#9 723293438#10 723293438#11 723293438#12 723293438#13 25109457#0 25109457#1 25109457#2 25109457#3 25109457#4 25109457#5 25109457#6 229775895#0 229775895#1 229775895#2 229775895#3 229775895#4 229775895#5 229775895#6 229775895#7 229775895#8 229775895#9 229775895#10 229775895#11 229775895#12 229775895#14 229775895#15 195187468 131710750#0 131710756#0 131710756#1 131710756#2"/>
    </vehicle>
    <vehicle id="35" depart="35.00">
        <route edges="-59181740#1 -42709208#4 -59181722#1 -59181714"/>
    </vehicle>
    <vehicle id="36" depart="36.00">
        <route edges="164954117#0 164954117#1 1060439999 1066877324 28947752#0 28947752#1 1185021200#0 1185021200#1 -979798588#1 -979798588#0 -164954104#4 -164954104#3 -164954104#2 -164954104#1 -164954104#0 1056178525#0 1056178525#1 22797962#1 146689271#0 146689271#1 146689271#2 1058259893 146689272#0 146689272#1 146689777 146689773 164954105#0 164954105#1 164954105#2 164954105#3 164954105#4 164954105#5 164954105#6 164954105#7 164954105#9 164954105#10 1424222211 1424222213 127844310 986663372#0 986663372#1 986663372#2 -38758392#2 59198080 -59198080"/>
    </vehicle>
    <vehicle id="37" depart="37.00">
        <route edges="1070843315#0 1070843315#1 30833629#8 30833629#9 30833629#10 30833629#11 30833629#12 30833629#13 30833629#14 162395720#0 162395720#2 644299936#0 644299936#1 644299937#0 644299937#1 156453763#0 156453763#1 156453763#2 156453763#3 1066854240 1066854251#1 175226668#2 42501522#0 42501522#1 42501522#3 -175226647#10 -175226647#9 -175226647#8 -175226647#7 -175226647#6 -175226647#5 -175226647#4 -175226647#3 -175226647#2 -175226647#1 -175226647#0 -173229536#8 -173229536#7 -173229536#6 -59167969#1 -59167969#0"/>
    </vehicle>
    <vehicle id="38" depart="38.00">