<?xml version="1.0" encoding="UTF-8"?>

<!-- generated on 2026-02-27 18:23:28 by Eclipse SUMO duarouter Version 1.18.0
<configuration xmlns:xsi="http://www.w3.org/2001/XMLSchema-instance" xsi:noNamespaceSchemaLocation="http://sumo.dlr.de/xsd/duarouterConfiguration.xsd">

    <input>
        <net-file value="src/sumo_setup/osm.net.xml.gz"/>
        <route-files value="src/sumo_setup/trips.trips.xml"/>
    </input>

    <output>
        <output-file value="src/sumo_setup/osm.rou.xml"/>
    </output>

    <processing>
        <repair value="true"/>
    </processing>

    <report>
        <ignore-errors value="true"/>
    </report>

</configuration>
-->

<routes xmlns:xsi="http://www.w3.org/2001/XMLSchema-instance" xsi:noNamespaceSchemaLocation="http://sumo.dlr.de/xsd/routes_file.xsd">
    <vehicle id="0" depart="0.00">
        <route edges="31781432#1 676583870 -31781432#0 28137354#21 28137354#22 28137354#23 28137354#24 28137354#25 28137354#26 28137354#27 28137354#28 28137354#29 28137354#30 28137354#31 28137354#32 28137354#33 28137354#34 28137354#35 28137354#36 28137354#37 760554068#0 760554068#1 760554068#2 760554068#3 -760554069 -758628160#13 -758628160#12 -758628160#11 -758628160#10 -758628160#9 -758628160#8 -758628160#7 -758628160#6 -758628160#5 -758628160#4 -758628160#3 -758628160#2 -758628160#1 -758628160#0 -1256686205#2 -1256686205#1 -1256686205#0 482392245#0 482392245#1 760410385#2 760410385#0 -31769507#7 -31769507#6 -31769507#5 -31769507#4 -31769507#3 -31769507#2 -31769507#1 -762971021 -756051537 693367902#4 693367902#5 693367902#6 693367902#7 693367902#8 780733675 693368686#1 -571542081#7 -571542081#5 -571542081#4 -571542081#3 -571542081#2 -571542081#1 -571542081#0 -571542082 -778426882#10 -778426882#9 -778426882#8 -778426882#7 -778426882#6 -778426882#5 -778426882#4 -778426882#3 -778426882#2 -778426882#1 -778426882#0 -311574639#2 -311574639#1 -311574639#0 -648938023#5 -648938023#4 -648938023#3 -648938023#2 -648938023#1 -648938023#0 -759712120 759701490#0 759701490#1 648926570#0 648926570#1 648926570#2 28418891#0 28418891#1 28418891#2 28418891#3 28418891#4 28418891#5 28418891#6 28418891#7 28418891#8 28418891#9 28418891#10 28418891#11 28418891#12 28418891#13 28418891#14 28418891#15 28418891#16 28418891#17 28418891#18 28418891#19 28418891#20 28418891#21 521771809#0 521771809#1 521771809#2 521771809#3 521771809#4 311488925#1 311488925#2 -158810178#4 -158810178#3 -158810178#2 -158810178#1 310390613#0 310390613#1 310390613#2 310390613#3 -229871181#2 -229871181#1 -229871181#0 1119755525#0 1119755525#1 -1119755525#1"/>
    </vehicle>
    <vehicle id="1" depart="10.00">
        <route edges="-514464827 -514464829#2 -514464829#1 -514464829#0 -32095251#1 -32095251#0 500869881#6 500869881#7 500869881#8 500869881#9 500869881#10 1228061729 1223393506#0 1223393506#1 653065899 756079664 780742327#1 780742327#2-AddedOnRampEdge 780742327#2 780742327#3 31810958#0 31810958#1 31810958#2 1254686693#0 1254686693#1 1254686693#2 514399133 514399133-AddedOffRampEdge 765629534#0 765629534#1 696912903#0 696912903#1 696912903#2 696912903#3 31812795 644266117 913063499 759923714#1 759923714#2 1298591111 202367175#0 202367175#1 202367175#2 202367175#3 202367175#4 202367175#5 202367175#6 202367175#7 1252398007#0 1252398007#1 758271887 521840146 652141916#0 652141916#1 652285694#0 652285694#1 652285694#2 652285694#3 652285694#4 652285694#5 652285694#6 652285694#7 652285694#8 652285694#9 652285694#10 652285694#11 652285694#12 652285694#13 652285694#14 31813163 652039569 449551341#0 449551341#1 449551341#2 449627540 652742499#0 652742499#1 652742499#2 652742499#3 652742499#4 652742499#5 652742499#6 652742499#7 652742499#8 652742499#9 652742499#10 652742499#11 557844496#0 557844496#1 557844496#2 453239933#0 453239933#1 449551277#0 449551277#1 453239936 1263553274 453253808 751649670 453253820 652543131 449551349 1252846325 449551290 759658441#0 759658441#1 759658441#2 1289614155#0 1289614155#1 1289614155#2 1289614155#3 1289614155#4 1289614155#5 1289614155#6 1289614155#7 1289614155#8 1289622789#0 1289622789#1 1289622789#2 1289622789#3 1289622789#4 1289622789#5 1289622789#6 1289622789#7 1289622789#8 1289622789#9 28218863#0 28218863#1 28218863#2 28218863#3 28218863#4 28218863#5 28218863#6 28218863#7 28218863#8 28218863#9 28218863#10 28218863#11 28218863#12 28218863#13 28218863#14 1349179459#0 1349179459#1 1349179459#2 1349179459#3 1349179459#4 1349179459#5 760378277#0 760378277#1 760378277#2 760378277#3 760378277#4 500845431#0 500845431#1 28218942#0 28218942#1 28218942#2 28218942#3 28218942#4 28218942#5 28218942#6 28218942#7 28218942#8 768031659 -496829962#5 -496829962#4 -496829962#3 -496829962#2 -496829962#1 -496829962#0 496829975#0 496829975#1 496829975#2 496829975#3 496829975#4 915847039 496830035#1 -496830035#1"/>
    </vehicle>
    <vehicle id="2" depart="20.00">
        <route edges="501533706#1 -501533706#1 -501533706#0 30968266#7 30968266#8 -1034719386#2 -1034719386#1 -1034719386#0 -1034719385 -30271047 -500872027#2 -500872027#1 -500872027#0 30271055#14 30271055#15 30271055#16 30271055#17 30271055#18 30271055#19 -1005099905#4 -1005099905#3 -1005099905#2 -1005099905#1 -1005099905#0 974616153 1299936670#2 1299936670#3 1299936670#4 1299936670#5 1299936670#6 1299936670#7 1299936670#8 1299936670#9 1299936670#10 695592443#0 695592443#1 686002856 140793212#0 140793212#1 140793212#2 140793212#3 140793212#4 140793212#5 140793212#6 761825396 32123041#0 32123041#1 32123041#2 32123041#3 32123041#4 32123041#5 32123041#6-AddedOnRampEdge 32123041#6 32123041#7 32123041#8 32123041#9 761767382 694903719 761767381 759931741 694917018#1 694917018#2 32122959 32122962 759932854#0 759932854#1 518484707#0 518484707#1 518484707#2 29020408#1 29020408#2 29020408#3 29020408#4 29020408#5 29020408#6 29020425 803584876 644698513#1 1268570502 -759913795 -518484721#1 -518484721#0 -1133097381 -653110616#1 -653110616#0 652166800#0 652166800#1 652166800#2 652166800#3 652166800#4 652166800#5 652166800#6 652169159 652169881#0 760195121 760195120#0 760195120#1 760195120#2 356079280#1 652429867 1299039811#0 1299039811#1 1299039811#2 989286492#0 989286492#1 989286492#2 989286492#3 989286492#3-AddedOffRampEdge 590303639#0 590303639#1 760209535#0 760209535#1 760209535#2 894694685#0 894694685#1 894694685#2 894694685#3 894694685#4 449551327#0 449551327#1 767746468 756051527 894694678#0 894694678#1 31813162#0 31813162#1 31813162#2 750302726#0 750302726#1 696899366#0 696899366#1 1359446636 749657654#0 749657654#1 31813164#1 31813164#2 751611196#1 1205693042 229062379#0 229062379#1 751609127#1 751609127#2 644266118 913063500 759923713#0 759923713#1 590310696#0 590310696#1 590310696#2 1231139295 31810957#0 31810957#1 766150241#0 766150241#1 653065907#1 653065907#2 803655494 1223393505#0 1223393505#1 1223393505#2 1223393505#3 1228061728 500869879#0 500869879#1 500869879#2 500869879#3 500869879#4 500869879#5 500869879#6 500869879#7 500869879#8 500869879#9 500869879#10 500869879#11 500869879#12 500869879#13 500869879#14 500869879#15 500869879#16 500869879#17 500869879#18 31808006#0 31808006#1 31808006#2 31808006#3 31808006#4 31808006#5 31808006#6 31808006#8 31808006#9 31808006#10 1304381189#0 1304381189#1 1304381189#2 1304381189#3 1304381189#4 1304381189#5 1304381189#6 575397148 688629432#1 688629432#2 688629432#3 688629432#4 688629432#5 688629432#6 703133276#0 703133276#1 703133276#2 703133276#3 703133276#4 1220243449 759677868#0 759677868#1 759677867#1 703133274#0 703133274#1 567402332#0 567402332#1 410110616#3 410110616#4 760205178#0 760205178#1 760205178#2 760205178#3 760205178#4 760205178#5 702421649#0 702421649#1 702421649#2 702421649#3 702421649#4 702421649#5 702421649#6 1254538204#0 1254538204#1 697988187#0 697988187#1 697988187#2 697988185#0 697988185#1 697988185#2 697988185#3 697988185#4 697988185#5 697988184 1254530499 697988183 31806415#0 31806415#1 31806415#2 31806415#3 1096421243 698204962 698414244#0 698414244#1 1253346337 698414245 698414458 698207194#0 698207194#1 698207193 501977469#0 501977469#1 501977469#2 242488425#0 242488425#1 242488425#2 242488425#3 242488425#4 242488425#5 242488425#6 242488425#7 242488425#8 -32254944#6 -32254944#5 -32254944#4 -32254944#3 -32254944#2 -32254944#1 -32254944#0 -1004191108#1 -1004191108#0 -1004191109#1 -1004191109#0 -1107733307#2 -1107733307#1 -1107733307#0 32507280#0 32507280#1 32507280#2 -32507134#3 -32507134#2 -32507134#1 -32507134#0 32290633#0 32290633#1 32290633#2 32290633#3 354002733#1"/>
    </vehicle>
    <vehicle id="3" depart="30.00">
        <route edges="679515673 -1211107918 -158807419#0 570806625 570806623 570806624 -158807420#5 -158807420#4 -158807420#3 -158807420#2 -158807420#1 -158807420#0 590920008 500346171 499839637#7 499839637#8 140792122#1 140792122#2 140792122#3 499839497#1 499839497#2 499839497#3 499839497#4 499839497#5 499839497#6 499839497#7 499839497#8 499839497#9 499839497#10 499839499#1 140792126#1 643275713#0 643275713#1 140792124#0 140792124#1 140792125#0 140792125#1 140792125#2 32123251#0 32123251#1 1299936667 686002858 686002856 140793212#0 140793212#1 140793212#2 140793212#3 140793212#4 140793212#5 140793212#6 761825396 1109065802 1428250751#0 1428250751#1 1428250751#2 1428250751#3 1428250753 1299926389#0 1299926389#1 1299926389#2 1299926389#3 1299926389#4 1299926389#5 1299926389#6 1299926389#7 1299926389#8 1299926389#9 1299926389#10 1299926389#11 1299926389#12 1299926389#13 1299926389#14 1299926389#15 1299926389#16 1299926389#17 1299926389#18 1299926389#19 521149066#0 521149066#1 521149066#2 521149066#3 521149066#4 521149066#5 521149066#6 521149066#7 521149066#8 521149066#9 521149066#10 521149066#11 521149066#12 521149066#13 521149066#14 521149066#15 521149066#16 521149066#17 521149066#18 521149066#19 521149066#20 521149066#21 521149066#22 521149066#23 521149066#24 521149066#25 681049895#1 681049895#2 681049895#3 681049895#4 681049895#5 681049895#6 681049895#7 681049895#8 681049895#9 681049895#10 681049895#11 681049895#12 681049895#13 681049895#14 681049895#15 681049895#16 761784799 571153080#0 571153080#1 571153080#2 571153080#3 571153080#4 571153080#5 567425250 1294793535 1107788938#0 1107788938#1 1107788938#2 1107788938#3 1107788938#4 567425257#0 567425257#1 567425257#2 229062381 319656577#0 319656577#1 319656577#2 694960839#1 694967832#0 694967832#1 571153079 307011107 319661012#1 319661012#2 319661012#3 319661012#4 319661012#5 319661012#6 319661012#7 319661012#7-AddedOffRampEdge 1239275993 1108600919 1239275995 319661008#0-AddedOnRampEdge 319661008#0 319661008#1 319661008#2 319661008#3 319661008#4 319661008#5 319661008#6 319661008#7 319661008#8 319661008#8-AddedOffRampEdge 319661008#9 319661008#10 319661008#11 319661008#12 319661008#13 319661008#14 319661008#15 319661008#16 319661008#17 319661008#18 319661008#19 319661008#20 756807238#0 756807238#1 756807238#2 567290540#0 567290540#1 567290540#2 32077298#0 32077298#1 32077298#1-AddedOffRampEdge 123085454 311488924#1 311488924#2 311488924#3 311488924#4 311488924#5 1106873602 512756036#1 512756036#2 512756036#3 512756036#4 512756036#5 512756036#6 521777732 -531922818#13 -531922818#12 -531922818#11 -531922818#10 -531922818#9 -531922818#8 -531922818#7 -531922818#6 -531922818#5 -531922818#4 -531922818#3 -531922818#2 -531922818#1 -531922818#0 -31815348#14 -31815348#13 -31815348#12 -31815348#11 -31815348#10 -31815348#9 -31815348#8 -31815348#7 -31815348#6 -31815348#5 -31815348#4 -31815348#3 -31815348#2 -31815348#1 -31815348#0 -648926573 759701493#0 759701493#1 759712119 759712121#0 759712121#1 1301524071 778513710#0 778513710#1 778513710#2 778513710#3 778513710#4 1301524072#0 1301524072#1 1301524072#2 1301524072#3 1301524072#4 1301524072#5 1301524072#6 1304381186#0 1304381186#1 1304381186#2 1304381186#3 1304381186#3-AddedOffRampEdge 759916714 759914391#1 759914391#2 759914391#3 757275601#0 757275601#1 32220475#1 -168337126#3"/>
    </vehicle>
    <vehicle id="4" depart="40.00">
        <route edges="-950048572 -571496690#1 -571496690#0 -31780158#23 -31780158#22 -31780158#21 -31780158#20 -31780158#19 -31780158#18 -31780158#17 -31780158#16 -31780158#15 -31780158#14 -31780158#13 -31780158#12 -31780158#11 -31780158#10 -31780158#9 -31780158#8 -31780158#7 -31780158#6 -31780158#5 -31780158#4 -31780158#3 -31780158#2 -31780158#1 -31780158#0 898547120 1254723816 1300045461#0 1300045461#1 1300045461#2 1300045461#3 1300045461#4 898547119#0 688538706 1300045460#2 32080504#0 32080504#1 32080504#2 32080504#3 32080504#4 -1079669524#5 -1079669524#4 -1079669524#3 -1079669524#2 -1079669524#1 -1079669524#0 -1304373728#1 -1304373728#0 -32080503#16 -32080503#15 -32080503#14 -32080503#13 -32080503#12 -32080503#11 -32080503#10 -32080503#9 -32080503#8 -32080503#7 -32080503#6 -32080503#5 -32080503#4 -32080503#3 -32080503#2 -32080503#1 -32080503#0 311491597#0 311491597#1 311491597#2 1001043843 18568262#0 18568262#1 18568262#2 18568262#3 18568262#4 18568262#5 18568262#6 18568262#7 18568262#8 18568262#9 18568262#10 18568262#11 1304373729 1289555829 32077433#0 358846360#0 358846360#1-AddedOnRampEdge 358846360#1 358846360#2 358846360#3 358846360#4 358846360#5 358846360#6 358846353#1 358846353#2 688707467 358846356 358846356-AddedOffRampEdge 688697866#0 688697866#1 688697866#2 644735742 229084366#0 229084366#1 693321394 679195334#0 679195334#1 679195334#2 679195332#1 -687289478#2 -687289478#1 -687289478#0 -356957120#5 -356957120#4 -356957120#3 -356957120#2 -356957120#1 -356957120#0 356957117#0 356957117#1 679165306#0 679165306#1 679165306#2 679165306#3 679165306#4 -352050881#6 -352050881#5 -352050881#4 -352050881#3 -352050881#2 -352050881#1 -352050881#0 -766432370 679165308 -154123139#1 -154123139#0 782037503#0 782037503#1 782037503#2 1218097278 685390179#0 685390179#1 685390179#2 685390179#3 685390179#4 685390179#5 685390179#6 -158823970#23 -158823970#22 -158823970#21 -158823970#20 -158823970#19 -158823970#18 -158823970#17 -158823970#16 -158823970#15 -158823970#14 -158823970#13 -158823970#12 -158823970#11 -158823970#10 -158823970#9 -158823970#8 158823981#0 158823981#1 158823981#2 158823981#3 158823981#4 -519262477 1190950332 -1190950332"/>
    </vehicle>
    <vehicle id="5" depart="50.00">
        <route edges="-493633449#4 493633449#4 -158841861#2 -158841861#1 -158841861#0 -499804787 493633485#3 493633485#4 493633485#5 493633408#0 493633408#1 493633408#2 493633408#3 493633408#4 493633408#5 493633408#6 493633408#7 493633408#8 493633408#9 493633408#10 496025686#10 496025686#11 496025686#12 496025686#13 496025686#14 1082908173#0 1082908173#1 705312017#0 705312017#1 705312017#2 705312017#3 500033412 563394848 1284899631#0 1284899631#1 1284899631#2 1284899631#3 1257346422#1 28799344 557524216#1 698801856#0 698801856#1 1220261326 685777592 1220260102#1 1220260101 518966609 1220258257 28213170 1249938307 652204586 1252754501 652204585 1249938302-AddedOnRampEdge 1249938302 758677239 1034697150 562407886#0 562407886#1 562407886#2 562407886#3 1263664036 652556764#1 652556764#2 652556761#0 652556761#1 652556761#2 652556761#3 652556761#4 759702438#0 759702438#1 652559891 652837120 652789273#0 652789273#1 652789273#2 652789272#0 652789272#1 652789272#2 652789272#3 652789272#4 652789272#5 652796463 29276911#0 29276911#1 29276911#2 29276911#3 29276911#4 29276911#5 29276911#6 29276911#7 29276911#8 1107768634#0 1107768634#1 1107768635#0 1107768635#1 761773234 758650457#1 758650457#2 761773233#1 758650456#0 758650456#1 758650456#2 758650456#3 758650456#4 758650456#5 758650456#6 484643152 762075453#0 762075453#1 1225579111#0 1225579111#1 724845669#0 724845669#1 724845669#2 724845669#3 724845669#4 760268603 484501525 484501524 1249856032 567810228#0 567810228#1 1284827015#0 1284827015#1 1284827015#2 609217147 609217146 609217145 485823258#0 485823258#1 485823258#2 760397240#0 760397240#1 760397240#2 760397240#3 760397240#4 1249856025#0 1249856025#1 1249856025#2 609217152#1 609217152#2 28137121#0 28137121#1 28137121#2 28137121#3 28137121#4 28137121#5 28137121#6 28137121#7 28137121#8 -892514455 -654440844#2 -654440844#1 -654440844#0 -733012593 1263641643 -733012594#1 -733012594#0 485778811#5 485778811#6 485778811#7 -756640519 -28258918#2 -28258918#1 -28258918#0 1264684441 485778804#0 485778804#1 485778804#2 485778804#3 -1230600914 -724266605#2 -724266605#1 -571165510#2 1339446609"/>
    </vehicle>
    <vehicle id="6" depart="60.00">
        <route edges="-1152719016#2 -1152719016#1 -1152719016#0 158850426#2 158850426#3 158850426#4 158850426#5 158850426#6 158850426#7 -169077042#4 -169077042#3 -169077042#2 -169077042#1 -169077042#0 -353667633#1 -353667633#0 -311710735#3 -311710735#2 -311710735#1 -311710735#0 754507061 1215109036-AddedOnRampEdge 1215109036 228545564 295466695#0 295466695#1 295466695#2 520201739 158823979 229062372#5 229062372#6 229062372#7 229062372#8 229062372#9 229062372#10 229062372#11 229062372#12 229062372#13 229062372#14 229062372#15 229062372#16 229062372#17 229062372#18 229062372#19 229062372#20 229062372#21 229062372#22 229062372#23 229062372#24 229062372#25 229062372#26 229062372#27 229062372#28 229062372#29 229062372#30 229062372#31 229062372#32 229062372#33 229062372#34 229062372#35 229062372#36 29050463#0 29050463#1 520201894 229136143#0 229136143#1 229136143#2 229136143#3 229136143#4 229136143#5 1284899623#0 1284899623#1 1286868730 694954192#0 694954192#1 694954192#2 694954192#3 319656576#0 319656576#1 319656576#2 319656576#3 319656576#4 319656576#5 319656576#6 319656576#7 319656576#8 319656576#9 319656576#10 319656576#11 319656576#11-AddedOffRampEdge 592594110 307011099 307011099-AddedOffRampEdge 159695396 32122958 694217568#0 694217568#1 320130046 690658673#0 690658673#1 690658673#2 690658673#3 690658673#4 800298601#1 800298601#2 694947797#1 192702700#0 192702700#1 192702700#2 192702700#3 192702700#4 192702700#5 192702700#6 192702700#7 192702700#8 192702700#9 192702700#10 694947847#0 694947847#1 690658672#1 690658672#2 506919044#1 506919044#2 506919044#3 690665723 383453372#1 383453372#2 383453372#3 307011101 1265685673 320137104#0 320137104#1 320137104#2 320137104#3 320137104#4 320137104#4-AddedOffRampEdge 320137104#5 768031660#0 768031660#1 768031660#2 768031660#3 768031660#4 768031660#5 768031660#6 -768031659 -28218942#8 -28218942#7 -28218942#6 -28218942#5 -28218942#4 1050997143 400097247 -400097247"/>
    </vehicle>
    <vehicle id="7" depart="70.00">
        <route edges="319100391#1 319100391#2 319100391#3 759879913 759879914#0 759879914#1 1256842908 804062590 -1256842906#1 -27989688#2 -27989688#1 -27989688#0 682862728#0 682862728#1 682862728#2 590699922 27989659#0 27989659#1 27989659#2 27989659#3 27989659#3-AddedOffRampEdge 27989659#4 27989659#5 555598243 1301534676#0 1301534676#1 1301524067#0 1301524067#1 1301524067#2 1301524067#3 31825099#0 31825099#1 31825099#2 31825099#3 31825099#4 31825099#5 31825099#6 751613331 1298591110#0 751609128 1205693042 229062379#0 229062379#1 751609127#1 751609127#2 571584693#0 571584693#1 571584693#2 571584689#0 571584689#1 544680939#0 544680939#1 544680939#2 544680939#3 544680939#4 544680939#5 544680939#6 544680939#7 544680939#8 544680939#9 1281432977#1 1281432977#2 653114053#0 653114053#1 653114053#2 1101569572 803597449#0 803597449#1 803597447 202367176#0"/>
    </vehicle>
    <vehicle id="8" depart="80.00">
        <route edges="-494970774#0 760390437 1349179459#1 1349179459#2 1349179459#3 1349179459#4 1349179459#5 760378277#0 760378277#1 760378277#2 760378277#3 760378277#4 -28218965#1 -28218965#0 -28779910#7 -28779910#6 -28779910#5 -28779910#4 -28779910#3 -28779910#2 -28779910#1 -28779910#0 594542330 28229175#0 28229175#1 28229175#2 28229175#3 28229175#4 28229175#5 28229175#6 28229175#7 28229175#8 756150147 320137099#0 320137099#1 320137099#1-AddedOffRampEdge 28229376 28799347-AddedOnRampEdge 28799347 28799347-AddedOffRampEdge 761831035 1211261305 775863589 869987780 557524219 877934990#1 306792306#0 306792306#1 306792306#2 306792306#3 306792306#4 306792306#5 306792306#6 306792306#7 306792306#8 306792306#9 306792306#10 306792306#11 306792306#12 306792306#13 306792306#14 28875339#0 28875339#1 28875339#2 28875339#3 28875339#4 28875339#5 28875339#6 28875339#7"/>
    </vehicle>
    <vehicle id="9" depart="90.00">
        <route edges="521752437 -1145085061 521752436 28419012#0 28419012#1 28419012#2 28419012#3 28419012#4 -525856276#0 -684146192#1 -684146192#0 684146195 1298591106 681342107#2 681342107#3 -767809999#4 -767809999#3 -767809999#2 -767809999#1 -767809999#0 28198596#0 28198596#1 28198596#2 28198596#3 722567756 571153044 761573986#0 761573986#1 684175441#0 684175441#1 684175441#2 684175441#3 684175441#4 -229062384#4 -229062384#3 -229062384#2 -229062384#1 -229062384#0 571153027#0 571153027#1 571153027#2 571153027#3 571153027#4 571153027#5 571153027#6 571153027#7 613313335#0 613313335#1 759887684 31883489#0 31883489#1 567275929#1 1107584029 524299004 192647915#0 192647915#1 192647915#2 -1026977509 229082124#5 229082124#6 756799745#0 756799745#1 31884191#0 31884191#1 31884191#2 675453636#0 675453636#1 675453636#2 675453636#3 675453636#4 761784801#0 761784801#1 694230299#0 694230299#1 694230299#2 694230299#3 694230299#4 694230299#5 694230299#6 694230299#7 1294793536#0 1294793536#1 1294793536#2 1294793536#3 1294793536#4 1294793536#5 1294793536#6 28820337#1 28820337#2 28820337#3 28820337#4 28820337#5 28820337#6 28820337#7 28820337#8 28820337#9 28820337#10 28820337#11 28820337#12 28820337#13 28820337#14 28820337#15 28820337#16 28820337#17 28820337#18 28820337#19 1299936666#0 1299936666#1 1299936666#2 1299936666#3 1299936666#4 1299936666#5 1299936666#6 1299936666#7 1299936666#8 1299936666#9 1299936666#10 1299936666#11 1299936666#12 1299936666#13 1299936666#14 1299936666#15 1299936666#16 1299936666#17 1299936666#18 1299936666#19 631730052 690654077#0 690654077#1 690654077#2 690654077#3 690654077#4 690654077#5 690654077#6 690654077#7 690654077#8 695534983#0 695534983#1 695534983#2 695534982 1299936672#0 1299936672#1 1299936672#2 1299936672#3 1299936672#4 1299936672#5 537080467#0 537080467#1 537080467#2 537080467#3 537080467#4 537080467#5 537080467#6 537080467#7 537080467#8 537080467#9 537080467#10 537080467#11 537080467#12 537080467#13 537080467#14 537080467#15 537080467#16 537080467#17 537080467#18 537080467#19 537080467#20 537080467#21 537080467#22 537080467#23 537080467#24 537080467#25 537080467#26 537080467#27 537080467#28 537080467#29 537080467#30 537080467#31 537080467#32 537080467#33 537080467#34 537080467#35 537080467#36 1303360005 590729448 30178780#0 -156921814#18 -156921814#17 -156921814#16 -156921814#15 -156921814#14 -156921814#13 -156921814#12 -156921814#11 -156921814#10 -156921814#9 -156921814#8 -156921814#7 -156921814#6 -156921814#5 -156921814#4 -156921814#3 -156921814#2 -156921814#1 -156921814#0 501533666#0 501533779 -501533725#0 -1034741994#2"/>
    </vehicle>
    <vehicle id="10" depart="100.00">
        <route edges="521707224 -521707222#1 -521707222#0 -158829525 158829520#6 750339623 -29029377#3 -29029377#2 -29029377#1 -29029377#0 30179215#1 30179215#2 30179215#3 30179215#4 30179215#5 30179215#6 30179215#7 1214636071#0 1214636071#1 558656859 383453370#23 383453370#24 383453370#25 383453370#26 383453370#27 383453370#28 383453370#29 499804792#1 499804792#2 499804792#3 499804792#4 499804792#5 499804792#6 499804792#7 499804792#8 496025686#0 496025686#1 496025686#2 496025686#3 496025686#4 496025686#5 496025686#6 496025686#7 496025686#8 496025686#9 496025686#10 496025686#11 496025686#12 496025686#13 496025686#14 1082908173#0 1082908173#1 705312017#0 705312017#1 705312017#2 705312017#3 500033412 563394848 1284899631#0 1284899631#1 1284899631#2 1284899631#3 1257346422#1 28799344 557524216#1 698801856#0 698801856#1 1220261326 685777592 1220260102#1 1220260101 518966609 1220258257 28213170 1249938307 652204586 1252754501 652204585 1249938302-AddedOnRampEdge 1249938302 758677239 1034697150 -1073721622#2 -1073721622#1 -1073721622#0 -1466844415#0 -1466841896 -1034697151 1466841899 760204944#0 760204944#1 760204944#2 760204945#0 760204945#1 760204945#2 760204945#3 491265988#0 491265988#1 491265988#2 697069498#0 697069498#1 460879294#0 460879294#1 460879294#2 460879294#3 460879294#4 460879294#5 460879294#6 460879294#7 760198261#0 760198261#1 28847130#4 28847130#5 685554494 688404232#0 688404232#1 688404232#2 28213360 698405411#0-AddedOnRampEdge 698405411#0 -28213395#3 -28213395#2 -28213395#1 -28213395#0 1281414138 28780633#1 28780633#2 28780633#3 28780633#4 28780633#5 28780633#6 28780633#7 824408370#0 485258144"/>
    </vehicle>
    <vehicle id="11" depart="110.00">
        <route edges="-571864998 28131774#11 28131774#12 631712164#5 631712164#6 631712164#7 631712164#8 654125782 -631712163 -29061450#7 -29061450#5 -29061450#4 -29061450#3 -29061450#2 -29061450#1 -29061450#0 -29061449#6 -29061449#5 -29061449#4 -29061449#3 -29061449#2 -29061449#1 -29061449#0 28137144#0 28137144#1 28137144#2 28137144#3 28137144#4 28137144#5 28137144#6 28137144#7 28137144#8 28137144#9 28137144#10 28137144#11 28137144#12 28137144#13 31758713#13 31758713#14 31758713#15 31758713#16 31758713#17 31758713#18 31758713#19 31758713#20 31758713#21 31758713#22 31758713#23 31758713#24 31758713#25 31758713#26 31758566#0 31758566#1 752160782 528006249 528006250 31758572#8 31758568 756861530 31758501#1 -523574273#3 -31758507#1"/>
    </vehicle>
    <vehicle id="12" depart="120.00">
        <route edges="775150630#1 775150630#2 449551299#7 449551299#8 449551299#9 449551299#10 449551299#11 449551299#12 449551299#13 449551299#14 449551299#15 449551299#16 449551299#17 449551299#18 449551299#19 449551299#20 449551299#21 449551299#22 449551299#23 1249895892#1 1249895892#2 812423079 760202859 760202860 1457108250 496830371 1457108249 496830370#0 496830370#1 496830370#2 496830370#3 496830370#4 496830370#5 1263520649 537067560 1263558123 657501850 652543127 652543128 652543130 1263558126 1289648021 653513198 651934657#0 651934657#1-AddedOnRampEdge 651934657#1 651934657#2 651934657#3 651934657#4 1249938297#1 1249938297#2 1249938297#3 1249938297#4 760209785#0 760209785#1 760209785#2 760209785#3 760209785#4 760209785#5 760209785#6 760209785#7 760209785#8 760209785#9 760209785#10 760209785#11 449627538 1250860523 231405765#0 231405765#1 231405765#2 18565458#0 18565458#1 18565458#2 652147787 652297256 652297259#0 652297259#1 652297260#0 652297260#1 652147786#0 652147786#0-AddedOffRampEdge 652147786#1 652147786#2 652147786#3 652147786#4 652147786#5 652147786#6 652147786#7 31812792#1 202098827 202098827-AddedOffRampEdge 521840148 750302726#0 750302726#1 696899366#0 696899366#1 1359446636 749657654#0 749657654#1 31813164#1 31813164#2 751611196#1 1205693042 229062379#0 229062379#1 751609127#1 751609127#2 644266118 913063500 759923713#0 759923713#1 590310696#0 590310696#1 590310696#2 1231139295 31810957#0 31810957#1 766150241#0 766150241#1 653065907#1 653065907#2 803655494 1223393505#0 1223393505#1 1223393505#2 1223393505#3 1228061728 500869879#0 500869879#1 500869879#2 500869879#3 500869879#4 500869879#5 500869879#6 500869879#7 500869879#8 500869879#9 500869879#10 500869879#11 500869879#12 500869879#13 500869879#14 500869879#15 500869879#16 -803674864 -514464837#3 -514464837#2 -514464837#1 -514464837#0 32095267#5 32095267#6 32095267#7 32095267#8 -571542081#3 -571542081#2 -571542081#1 1135330200 571542173 -571542173"/>
    </vehicle>
    <vehicle id="13" depart="130.00">
        <route edges="-264721077#2 264721077#2 264721077#3 514671304 500869879#14 500869879#15 500869879#16 500869879#17 500869879#18 31808006#0 31808006#1 31808006#2 31808006#3 31808006#4 31808006#5 31808006#6 31808006#8 31808006#9 31808006#10 1304381189#0 1304381189#1 1304381189#2 1304381189#3 1304381189#4 1304381189#5 1304381189#6 575397148 688629432#1 688629432#2 688629432#3 688629432#4 688629432#5 688629432#6 703133276#0 703133276#1 703133276#2 703133276#3 703133276#4 1220243449 759677868#0 759677868#1 759677867#1 703133274#0 703133274#1 688661888 760622795 736488987#0 736488987#1 406610591 736488986 703326476#0 703326476#1 760622794 689891711#0 689891711#1 689891711#2 689891710#0 689891710#1 689891710#2 689891710#3 689891710#4 689891709#0 689891709#1 628910534#0 628910534#1 628910534#2 628910534#3 628910534#4 698424037 652562979 1069005558 1069005557#0 802781561 1125239069#0 1125239069#1 1097936838#0 1097936838#1 1097936838#2 1097936838#3 1097936838#4 1097936838#5 1186177350#1 1186177350#2 1186177350#3 1186177350#4 1186177350#5 1186177350#6 1300151940#1 1300151940#2 1186177349#0 1186177349#1 1186177349#2 1186177349#3 1186177349#4 1186177349#5 1186177349#6 1186177349#7 357096206#1 357096206#2 357096206#3 357096206#4 357096206#5 357096206#6 357096206#7 357096206#8 357096206#9 357096206#10 357096206#11 827224286#0 827224286#1 827224286#2 827224286#3 827224286#4 827224286#5 827224286#6 827224286#7 827224286#7-AddedOffRampEdge 827224286#8 1289093280 1254538194 1101301526#0 1101301526#1 1101301526#2 1101301526#3 594526376#0 594526376#1 594526376#2 594526376#3 594526376#4 1101301524 1101301523#0 1101301523#1 1210811714 521454657#1 1210811715 1289562059#0 1289562059#1 1289562059#2 1289562059#3 1289562059#4 307011112#0 307011112#1 1213140073 1209968831#0 1209968831#1 1209968831#2 27970261#0 27970261#1 27970261#2 27970261#3 27970261#4 591497246 -1109110400 -27971911#0 -521441434 27971559#2 -27970711#3"/>
    </vehicle>
    <vehicle id="14" depart="140.00">