<?xml version="1.0" encoding="UTF-8"?>

<!-- generated on 2026-04-09 20:42:28.017467 by randomTrips.py UNKNOWN
<configuration>
    <net-file value="osm.net.xml.gz"/>
    <output-trip-file value="precalculated_v2.rou.xml"/>
</configuration>
-->

<routes xmlns:xsi="http://www.w3.org/2001/XMLSchema-instance" xsi:noNamespaceSchemaLocation="http://sumo.dlr.de/xsd/routes_file.xsd">
    <trip id="0" depart="0.00" from="458897473#3" to="-119572008"/>
    <trip id="1" depart="1.00" from="100639066" to="-700016227#6"/>
    <trip id="2" depart="2.00" from="510722286#2" to="487370387"/>
    <trip id="3" depart="3.00" from="749324782" to="-28696739#0"/>
    <trip id="4" depart="4.00" from="18056345#18" to="-1369698901#0"/>
    <trip id="5" depart="5.00" from="-674369965#0" to="28697188"/>
    <trip id="6" depart="6.00" from="-1250688970#2" to="-521424640#0"/>
    <trip id="7" depart="7.00" from="4705046#0" to="28773401#1"/>
    <trip id="8" depart="8.00" from="-674374091#3" to="28948445#1"/>
    <trip id="9" depart="9.00" from="654859816#2" to="-1030247944#1"/>
    <trip id="10" depart="10.00" from="636729731#3" to="492945102#2"/>
    <trip id="11" depart="11.00" from="1242181336#0" to="-485997876#9"/>
    <trip id="12" depart="12.00" from="768027248#0" to="1216677762#2"/>
    <trip id="13" depart="13.00" from="-28760108#2" to="-28760110#5"/>
    <trip id="14" depart="14.00" from="700016227#1" to="31602578"/>
    <trip id="15" depart="15.00" from="654688925#1" to="498751660"/>
    <trip id="16" depart="16.00" from="28760119#0" to="830894742#1"/>
    <trip id="17" depart="17.00" from="1425204999#1" to="28780858#0"/>
    <trip id="18" depart="18.00" from="68558044#3" to="449551309#4"/>
    <trip id="19" depart="19.00" from="732561673#3" to="28948364#3"/>
    <trip id="20" depart="20.00" from="494607304" to="-1490273031#8"/>
    <trip id="21" depart="21.00" from="-736720472#11" to="1062034113"/>
    <trip id="22" depart="22.00" from="-28193201#2" to="-745204237"/>
    <trip id="23" depart="23.00" from="-28760128#0" to="1008280576"/>
    <trip id="24" depart="24.00" from="45759131#2" to="1303661812"/>
    <trip id="25" depart="25.00" from="1370010724#0" to="-568042675#5"/>
    <trip id="26" depart="26.00" from="-952171065" to="761543188"/>
    <trip id="27" depart="27.00" from="4705040#1" to="365762684"/>
    <trip id="28" depart="28.00" from="-492247996#1" to="498593816#2"/>
    <trip id="29" depart="29.00" from="-487370368" to="1454323043"/>
    <trip id="30" depart="30.00" from="933100541" to="458897492#1"/>
    <trip id="31" depart="31.00" from="28908034" to="491571637"/>
    <trip id="32" depart="32.00" from="692258546#0" to="594491448#1"/>
    <trip id="33" depart="33.00" from="-736720472#17" to="-1376437524"/>
    <trip id="34" depart="34.00" from="1109106083#1" to="-974563050#1"/>
    <trip id="35" depart="35.00" from="-592530905" to="761957312"/>
    <trip id="36" depart="36.00" from="737187916#3" to="1109106082#3"/>
    <trip id="37" depart="37.00" from="483611733#0" to="1490273031#6"/>
    <trip id="38" depart="38.00" from="755942452" to="192692992#2"/>
    <trip id="39" depart="39.00" from="-933100540" to="-760591551#0"/>
    <trip id="40" depart="40.00" from="28934535#2" to="-915724211"/>
    <trip id="41" depart="41.00" from="28948431#0" to="749501463#4"/>
    <trip id="42" depart="42.00" from="1492931000" to="-674374054"/>
    <trip id="43" depart="43.00" from="977789024" to="28697231#8"/>
    <trip id="44" depart="44.00" from="-28715949#5" to="-1491988441"/>
    <trip id="45" depart="45.00" from="-28932382#7" to="453439710#1"/>
    <trip id="46" depart="46.00" from="630154039#1" to="18056345#18"/>
    <trip id="47" depart="47.00" from="-18570810#0" to="1486132223#1"/>
    <trip id="48" depart="48.00" from="974882099#0" to="28756544#1"/>
    <trip id="49" depart="49.00" from="824746571#1" to="726031709#0"/>
    <trip id="50" depart="50.00" from="-1081357415#0" to="497061625"/>
    <trip id="51" depart="51.00" from="491571532#0" to="28760119#2"/>
    <trip id="52" depart="52.00" from="-952170324" to="458897498#0"/>
    <trip id="53" depart="53.00" from="-28934594#2" to="18076076#1"/>
    <trip id="54" depart="54.00" from="18613724#0" to="762978065#2"/>
    <trip id="55" depart="55.00" from="737187916#0" to="-915726688"/>
    <trip id="56" depart="56.00" from="28696919#1" to="-492962098#0"/>
    <trip id="57" depart="57.00" from="755769006#3" to="736720472#13"/>
    <trip id="58" depart="58.00" from="109069459#9" to="458897473#2"/>
    <trip id="59" depart="59.00" from="365762684" to="-485997876#17"/>
    <trip id="60" depart="60.00" from="557219805#2" to="28760121#4"/>
    <trip id="61" depart="61.00" from="594820801" to="28760108#1"/>
    <trip id="62" depart="62.00" from="-100639064#0" to="11669819#9"/>
    <trip id="63" depart="63.00" from="-11669819#1" to="759648532#1"/>
    <trip id="64" depart="64.00" from="737759075#0" to="68558044#8"/>
    <trip id="65" depart="65.00" from="1106661485" to="-18056062#1"/>
    <trip id="66" depart="66.00" from="737743535#0" to="762101021#0"/>
    <trip id="67" depart="67.00" from="-28679893#2" to="28215834#2"/>
    <trip id="68" depart="68.00" from="-18640747#2" to="557206900"/>
    <trip id="69" depart="69.00" from="558777970#0" to="-28948426#0"/>
    <trip id="70" depart="70.00" from="28192806#1" to="28773435#0"/>
    <trip id="71" depart="71.00" from="-933150790" to="736720472#4"/>
    <trip id="72" depart="72.00" from="18056345#23" to="-594820806"/>
    <trip id="73" depart="73.00" from="28760121#5" to="499207014"/>
    <trip id="74" depart="74.00" from="-556966712#1" to="1108777322#2"/>
    <trip id="75" depart="75.00" from="974602690#1" to="4705046#1"/>
    <trip id="76" depart="76.00" from="18077180#0" to="28705725#4"/>
    <trip id="77" depart="77.00" from="-28948352#7" to="-715207087"/>
    <trip id="78" depart="78.00" from="1225505394#2" to="28948439#1"/>
    <trip id="79" depart="79.00" from="-736720472#4" to="-674374091#3"/>
    <trip id="80" depart="80.00" from="-197368793#3" to="453455938#1"/>
    <trip id="81" depart="81.00" from="-736720472#16" to="753801943"/>
    <trip id="82" depart="82.00" from="724274749#1" to="-197368793#2"/>
    <trip id="83" depart="83.00" from="-753795036#0" to="487370225"/>
    <trip id="84" depart="84.00" from="-627197607#1" to="-28948440#0"/>
    <trip id="85" depart="85.00" from="761304616#3" to="28948343#1"/>
    <trip id="86" depart="86.00" from="273202552#7" to="595272249"/>
    <trip id="87" depart="87.00" from="654688925#2" to="-496643308#1"/>
    <trip id="88" depart="88.00" from="-28760112#0" to="18070225#3"/>
    <trip id="89" depart="89.00" from="18056345#25" to="229362109#0"/>
    <trip id="90" depart="90.00" from="498593816#2" to="487370335#2"/>
    <trip id="91" depart="91.00" from="913731673" to="-28760119#2"/>
    <trip id="92" depart="92.00" from="1493494050#1" to="1239781918#0-AddedOnRampEdge"/>
    <trip id="93" depart="93.00" from="732561673#2" to="-761543188"/>
    <trip id="94" depart="94.00" from="-496643307" to="18577348#1"/>
    <trip id="95" depart="95.00" from="18056345#18" to="1013620468"/>
    <trip id="96" depart="96.00" from="-761780003" to="756564009"/>
    <trip id="97" depart="97.00" from="18078237#4" to="732484916"/>
    <trip id="98" depart="98.00" from="28780853#0" to="-1494364570"/>
    <trip id="99" depart="99.00" from="985470925#1" to="688527412#17"/>
    <trip id="100" depart="100.00" from="8151584#3" to="758669716#3"/>
    <trip id="101" depart="101.00" from="700016227#6" to="-489513473"/>
    <trip id="102" depart="102.00" from="28215834#0" to="-627197607#0"/>
    <trip id="103" depart="103.00" from="1493458236" to="-18058402#1"/>
    <trip id="104" depart="104.00" from="1426002413#1" to="914524912"/>
    <trip id="105" depart="105.00" from="-936585682" to="594905127"/>
    <trip id="106" depart="106.00" from="18640747#2" to="18056345#21"/>
    <trip id="107" depart="107.00" from="768027248#1" to="974602690#0"/>
    <trip id="108" depart="108.00" from="28799871#3" to="496643317#5"/>
    <trip id="109" depart="109.00" from="-485997876#5" to="109069459#2"/>
    <trip id="110" depart="110.00" from="8151584#0" to="28948368#0"/>
    <trip id="111" depart="111.00" from="28766851#0" to="540382604#2"/>
    <trip id="112" depart="112.00" from="-155107725" to="28948428"/>
    <trip id="113" depart="113.00" from="28696924#2" to="711243628"/>
    <trip id="114" depart="114.00" from="-487370226" to="774893628#0"/>
    <trip id="115" depart="115.00" from="-28193203" to="-495452795#1"/>
    <trip id="116" depart="116.00" from="31574284#0" to="487370369"/>
    <trip id="117" depart="117.00" from="-749501463#2" to="-28948352#2"/>
    <trip id="118" depart="118.00" from="749318590#2" to="-760560961"/>
    <trip id="119" depart="119.00" from="31571811#0" to="449551312"/>
    <trip id="120" depart="120.00" from="18056190#1" to="28948426#3"/>
    <trip id="121" depart="121.00" from="28715949#8" to="761234123"/>
    <trip id="122" depart="122.00" from="-557167339#2" to="496643315#3"/>
    <trip id="123" depart="123.00" from="-753796107" to="1490273031#6"/>
    <trip id="124" depart="124.00" from="487370331#0" to="109069460#7"/>
    <trip id="125" depart="125.00" from="1110058291#0" to="556966710#3"/>
    <trip id="126" depart="126.00" from="-226396405#3" to="192692986#8"/>
    <trip id="127" depart="127.00" from="985470923#1" to="974882094"/>
    <trip id="128" depart="128.00" from="-248618360#2" to="-594925181#0"/>
    <trip id="129" depart="129.00" from="-936585682" to="760597510#1"/>
    <trip id="130" depart="130.00" from="743000050" to="737759075#0"/>
    <trip id="131" depart="131.00" from="1369734225" to="-487370236"/>
    <trip id="132" depart="132.00" from="688527412#11" to="494047090#7"/>
    <trip id="133" depart="133.00" from="386578298#3" to="915719481"/>
    <trip id="134" depart="134.00" from="483591533#2" to="-1036703936#1"/>
    <trip id="135" depart="135.00" from="674369962#1" to="109069460#4"/>
    <trip id="136" depart="136.00" from="485997876#18" to="761558443"/>
    <trip id="137" depart="137.00" from="-31571806#0" to="-28934608#4"/>
    <trip id="138" depart="138.00" from="-28799871#2" to="28780860#3"/>
    <trip id="139" depart="139.00" from="1001381428#0" to="343646324#1"/>
    <trip id="140" depart="140.00" from="496643317#1" to="-557167339#0"/>
    <trip id="141" depart="141.00" from="453455941#9" to="-915737939"/>
    <trip id="142" depart="142.00" from="28216264#1" to="753796354"/>
    <trip id="143" depart="143.00" from="696175331#1" to="-28760108#11"/>
    <trip id="144" depart="144.00" from="18056345#25" to="1007578188#1"/>
    <trip id="145" depart="145.00" from="-1008278381" to="567789788"/>
    <trip id="146" depart="146.00" from="458897451#1" to="-915716395"/>
    <trip id="147" depart="147.00" from="521425771#5" to="28780855#1"/>
    <trip id="148" depart="148.00" from="18056345#9" to="-1046444018"/>
    <trip id="149" depart="149.00" from="-273202552#10" to="744806564#3"/>
    <trip id="150" depart="150.00" from="753794939#1" to="28773419#0"/>
    <trip id="151" depart="151.00" from="688527412#15" to="28948420#2"/>
    <trip id="152" depart="152.00" from="-485992315" to="-28948370"/>
    <trip id="153" depart="153.00" from="1106674702" to="749959946#1"/>
    <trip id="154" depart="154.00" from="631753737#1" to="726031709#0"/>
    <trip id="155" depart="155.00" from="749959946#2" to="-568042676#1"/>
    <trip id="156" depart="156.00" from="-761702133" to="-28773436#0"/>
    <trip id="157" depart="157.00" from="594852448#5" to="745178523#0"/>
    <trip id="158" depart="158.00" from="1494694345#1" to="449551337#1"/>
    <trip id="159" depart="159.00" from="-485997876#4" to="759678731#0"/>
    <trip id="160" depart="160.00" from="735444564" to="862374226"/>
    <trip id="161" depart="161.00" from="654859816#9" to="743000050"/>
    <trip id="162" depart="162.00" from="-1190328552" to="510722286#2"/>
    <trip id="163" depart="163.00" from="119572168#1" to="760232627#0"/>
    <trip id="164" depart="164.00" from="636729729#7" to="735371982"/>
    <trip id="165" depart="165.00" from="654859816#9" to="-952587263"/>
    <trip id="166" depart="166.00" from="629731296" to="-28932382#12"/>
    <trip id="167" depart="167.00" from="736720472#6" to="719606918#3"/>
    <trip id="168" depart="168.00" from="-700016227#1" to="674369905#1"/>
    <trip id="169" depart="169.00" from="192692998#0" to="1098613250#9"/>
    <trip id="170" depart="170.00" from="631712162#1" to="-736720472#11"/>
    <trip id="171" depart="171.00" from="-1185176502#1" to="-496804893#0"/>
    <trip id="172" depart="172.00" from="1176238684#1" to="735371983"/>
    <trip id="173" depart="173.00" from="805288740#0" to="101692851#0"/>
    <trip id="174" depart="174.00" from="458897498#1" to="1493092667"/>
    <trip id="175" depart="175.00" from="888122713#0" to="28760117#0"/>
    <trip id="176" depart="176.00" from="761561847#0" to="-28934608#4"/>
    <trip id="177" depart="177.00" from="821145964#2" to="-492962098#0"/>
    <trip id="178" depart="178.00" from="776653965#2" to="-946197004"/>
    <trip id="179" depart="179.00" from="-28932382#13" to="18076076#0"/>
    <trip id="180" depart="180.00" from="497570503#1" to="1109088804#1"/>
    <trip id="181" depart="181.00" from="343646324#5" to="28697246#15"/>
    <trip id="182" depart="182.00" from="1487311555" to="28948364#0"/>
    <trip id="183" depart="183.00" from="-818396052" to="495452793"/>
    <trip id="184" depart="184.00" from="-100639069#3" to="758260766"/>
    <trip id="185" depart="185.00" from="28760121#1" to="497048630#1"/>
    <trip id="186" depart="186.00" from="521425773" to="487370241"/>
    <trip id="187" depart="187.00" from="1299095345" to="-19007537#1"/>
    <trip id="188" depart="188.00" from="485997876#21" to="118888671#0"/>
    <trip id="189" depart="189.00" from="1109088804#1" to="696175333"/>
    <trip id="190" depart="190.00" from="497048640#1" to="109069460#9"/>
    <trip id="191" depart="191.00" from="1106958128#1" to="1495675988"/>
    <trip id="192" depart="192.00" from="1493494050#0" to="109069458#3"/>
    <trip id="193" depart="193.00" from="-28948369" to="18056345#10"/>
    <trip id="194" depart="194.00" from="761568618" to="488404227#0"/>
    <trip id="195" depart="195.00" from="753166753#1" to="449551263#0"/>
    <trip id="196" depart="196.00" from="1096521014" to="28773422#8"/>
    <trip id="197" depart="197.00" from="-1005518734#1" to="1046444018"/>
    <trip id="198" depart="198.00" from="18070049#1" to="28948370"/>
    <trip id="199" depart="199.00" from="483591533#5" to="201194172-AddedOffRampEdge"/>
    <trip id="200" depart="200.00" from="18077710#9" to="-596306267#0"/>
    <trip id="201" depart="201.00" from="276182881" to="750385743#1"/>
    <trip id="202" depart="202.00" from="631753737#0" to="-491571645#1"/>
    <trip id="203" depart="203.00" from="-28245898#4" to="28704893#1"/>
    <trip id="204" depart="204.00" from="453455941#3" to="1212792330#3"/>
    <trip id="205" depart="205.00" from="674369965#1" to="556966710#0"/>
    <trip id="206" depart="206.00" from="487370333" to="-715207087"/>
    <trip id="207" depart="207.00" from="-521424640#1" to="-118888671#3"/>
    <trip id="208" depart="208.00" from="-758732837" to="28192612"/>
    <trip id="209" depart="209.00" from="701753254" to="-248618360#1"/>
    <trip id="210" depart="210.00" from="155107719" to="453439715#4"/>
    <trip id="211" depart="211.00" from="-497093799" to="492945083"/>
    <trip id="212" depart="212.00" from="28683571" to="-758669716#4"/>
    <trip id="213" depart="213.00" from="484871115#2" to="-101747797"/>
    <trip id="214" depart="214.00" from="556966710#1" to="567637536#3"/>
    <trip id="215" depart="215.00" from="-28799871#0" to="18056345#32"/>
    <trip id="216" depart="216.00" from="-492945084" to="768027248#1"/>
    <trip id="217" depart="217.00" from="28705749#1" to="-1494338050"/>
    <trip id="218" depart="218.00" from="-761561850" to="700016227#1"/>
    <trip id="219" depart="219.00" from="192692986#1" to="636729729#0"/>
    <trip id="220" depart="220.00" from="487370077#2" to="915723632"/>
    <trip id="221" depart="221.00" from="31574284#2" to="762115002"/>
    <trip id="222" depart="222.00" from="749324781#0" to="435993156#0"/>
    <trip id="223" depart="223.00" from="497048630#1" to="28697138#5"/>
    <trip id="224" depart="224.00" from="68558044#8" to="28773422#8"/>
    <trip id="225" depart="225.00" from="749501463#3" to="531373183"/>
    <trip id="226" depart="226.00" from="28192604" to="-892524592#2"/>
    <trip id="227" depart="227.00" from="-760591551#1" to="458897452#3"/>
    <trip id="228" depart="228.00" from="558777970#0" to="28715949#0"/>
    <trip id="229" depart="229.00" from="453253827#2" to="100639064#1"/>
    <trip id="230" depart="230.00" from="-28192424" to="1042556911"/>
    <trip id="231" depart="231.00" from="1001371685#5" to="1156825607#0"/>
    <trip id="232" depart="232.00" from="28760124" to="-31600378"/>
    <trip id="233" depart="233.00" from="-736720472#9" to="492944984#1"/>
    <trip id="234" depart="234.00" from="494607319#2" to="-18570810#3"/>
    <trip id="235" depart="235.00" from="1495221250#1" to="28766851#0"/>
    <trip id="236" depart="236.00" from="18051561" to="-557551795#0"/>
    <trip id="237" depart="237.00" from="18056345#10" to="753795814"/>
    <trip id="238" depart="238.00" from="28948429" to="492945077#1"/>
    <trip id="239" depart="239.00" from="718244637#0" to="557551795#2"/>
    <trip id="240" depart="240.00" from="1474355701" to="-1017732110"/>
    <trip id="241" depart="241.00" from="1263586498#1" to="556966712#1"/>
    <trip id="242" depart="242.00" from="711243633#2" to="762978065#0"/>
    <trip id="243" depart="243.00" from="18056190#0-AddedOnRampEdge" to="540382604#0"/>
    <trip id="244" depart="244.00" from="28773422#2" to="31602564#1"/>
    <trip id="245" depart="245.00" from="-674918309" to="-674374054"/>
    <trip id="246" depart="246.00" from="18076571#5" to="-1369613260#0"/>
    <trip id="247" depart="247.00" from="1212792330#7" to="489513473"/>
    <trip id="248" depart="248.00" from="1494360662" to="-488406259#0"/>
    <trip id="249" depart="249.00" from="248618360#1" to="-28948420#0"/>
    <trip id="250" depart="250.00" from="450695536" to="-1250688970#5"/>
    <trip id="251" depart="251.00" from="1490273031#1" to="28934605#0"/>
    <trip id="252" depart="252.00" from="-1250688970#5" to="458897506#2"/>
    <trip id="253" depart="253.00" from="-31574284#1" to="192693001#2"/>
    <trip id="254" depart="254.00" from="-1494338050" to="1431939183"/>
    <trip id="255" depart="255.00" from="-594820801" to="11670523#2"/>
    <trip id="256" depart="256.00" from="557219772#1" to="1431939183"/>
    <trip id="257" depart="257.00" from="556966711#2" to="688073440#0"/>
    <trip id="258" depart="258.00" from="-770276214" to="-28215834#2"/>
    <trip id="259" depart="259.00" from="-11669819#1" to="28760121#4"/>
    <trip id="260" depart="260.00" from="999352841" to="1253346323#2"/>
    <trip id="261" depart="261.00" from="4705046#1" to="594852449#1"/>
    <trip id="262" depart="262.00" from="476947567" to="556966716#0"/>
    <trip id="263" depart="263.00" from="762115003" to="-526741029#0"/>
    <trip id="264" depart="264.00" from="-11669819#13" to="-485997876#15"/>
    <trip id="265" depart="265.00" from="-28948364#9" to="487370233"/>
    <trip id="266" depart="266.00" from="28934603#2" to="-674369964#0"/>
    <trip id="267" depart="267.00" from="492962097#0" to="560887461#1"/>
    <trip id="268" depart="268.00" from="-491571596#1" to="343646324#8"/>
    <trip id="269" depart="269.00" from="540382604#4" to="-28934608#0"/>
    <trip id="270" depart="270.00" from="674372484" to="776905974#0"/>
    <trip id="271" depart="271.00" from="-28932382#11" to="-1243967973"/>
    <trip id="272" depart="272.00" from="1108789782" to="488404227#0"/>
    <trip id="273" depart="273.00" from="770276213#1" to="1490321872"/>
    <trip id="274" depart="274.00" from="496643310#0" to="-273202552#5"/>
    <trip id="275" depart="275.00" from="492248004#0" to="453439710#0"/>
    <trip id="276" depart="276.00" from="-28766823" to="568042676#0"/>
    <trip id="277" depart="277.00" from="701753255#3" to="31593661#0"/>
    <trip id="278" depart="278.00" from="-28948352#7" to="893307503"/>
    <trip id="279" depart="279.00" from="594893757#1" to="1252834552#0"/>
    <trip id="280" depart="280.00" from="18058402#0" to="1370010728"/>
    <trip id="281" depart="281.00" from="28697231#1" to="1244266613"/>
    <trip id="282" depart="282.00" from="701753253#1" to="674374038#9"/>
    <trip id="283" depart="283.00" from="-28799340#0" to="774893628#0"/>
    <trip id="284" depart="284.00" from="45759131#1" to="681333443#4"/>
    <trip id="285" depart="285.00" from="495452792#1" to="18076571#3"/>
    <trip id="286" depart="286.00" from="501941681#7" to="778739792#0"/>
    <trip id="287" depart="287.00" from="-999352841" to="654689746"/>
    <trip id="288" depart="288.00" from="28760121#0" to="28215795#2"/>
    <trip id="289" depart="289.00" from="18076571#4-AddedOnRampEdge" to="500045668#4"/>
    <trip id="290" depart="290.00" from="-974602690#0" to="711241489#1"/>
    <trip id="291" depart="291.00" from="68558044#9" to="-28696722#4"/>
    <trip id="292" depart="292.00" from="743087828#2" to="-758669716#4"/>
    <trip id="293" depart="293.00" from="201194172-AddedOffRampEdge" to="382743656#4"/>
    <trip id="294" depart="294.00" from="1426002413#1" to="-1355087167"/>
    <trip id="295" depart="295.00" from="711241488" to="-494047090#4"/>
    <trip id="296" depart="296.00" from="-594854069" to="631760994#1"/>
    <trip id="297" depart="297.00" from="1242181336#0" to="738096020#3"/>
    <trip id="298" depart="298.00" from="492962255#0" to="100639070"/>
    <trip id="299" depart="299.00" from="-1046486176" to="762101021#5"/>
    <trip id="300" depart="300.00" from="-28679893#1" to="497048640#2"/>
    <trip id="301" depart="301.00" from="28216264#1" to="557167339#0"/>
    <trip id="302" depart="302.00" from="492248004#0" to="467748853#0"/>
    <trip id="303" depart="303.00" from="28216524#0" to="630154039#2"/>
    <trip id="304" depart="304.00" from="-28760108#4" to="-692258546#2"/>
    <trip id="305" depart="305.00" from="492248011" to="1098855979"/>
    <trip id="306" depart="306.00" from="28948417#8" to="276182881"/>
    <trip id="307" depart="307.00" from="28760108#2" to="18056345#33"/>
    <trip id="308" depart="308.00" from="540378478#0" to="118888671#3"/>
    <trip id="309" depart="309.00" from="494047090#3" to="1001371685#2"/>
    <trip id="310" depart="310.00" from="-762108576" to="-28948352#6"/>
    <trip id="311" depart="311.00" from="-496643315#3" to="-28948352#1"/>
    <trip id="312" depart="312.00" from="28760117#0" to="557219803"/>
    <trip id="313" depart="313.00" from="-494607319#1" to="-674369535"/>
    <trip id="314" depart="314.00" from="28215795#5" to="497546915#1"/>
    <trip id="315" depart="315.00" from="866833754#2" to="28718793#7"/>
    <trip id="316" depart="316.00" from="1030247944#1" to="-28760123#1"/>
    <trip id="317" depart="317.00" from="-497048626#1" to="-736720472#10"/>
    <trip id="318" depart="318.00" from="-492962248" to="-1084948106"/>
    <trip id="319" depart="319.00" from="28760110#1" to="1005518734#1"/>
    <trip id="320" depart="320.00" from="845235177#1" to="28780860#4"/>
    <trip id="321" depart="321.00" from="492945097" to="-28948366"/>
    <trip id="322" depart="322.00" from="736720471#8" to="28216524#1"/>
    <trip id="323" depart="323.00" from="736720472#8" to="28948354"/>
    <trip id="324" depart="324.00" from="269746980#2" to="18077710#12"/>
    <trip id="325" depart="325.00" from="-494607309#0" to="-1495221247#1"/>
    <trip id="326" depart="326.00" from="761828342" to="28193176"/>
    <trip id="327" depart="327.00" from="674374080#2" to="1493257502#1"/>
    <trip id="328" depart="328.00" from="-269146525#0" to="453439715#2"/>
    <trip id="329" depart="329.00" from="-153742387#0" to="-485992574#3"/>
    <trip id="330" depart="330.00" from="28934601#1" to="1098613250#2"/>
    <trip id="331" depart="331.00" from="954631969" to="-28948339#0"/>
    <trip id="332" depart="332.00" from="557539450" to="343646324#3"/>
    <trip id="333" depart="333.00" from="630145554#6" to="-732795309"/>
    <trip id="334" depart="334.00" from="28715949#7" to="18613712#1"/>
    <trip id="335" depart="335.00" from="18078237#2" to="724274749#1"/>
    <trip id="336" depart="336.00" from="946815146#0" to="1098613250#9"/>
    <trip id="337" depart="337.00" from="449551357#0" to="382743656#1"/>
    <trip id="338" depart="338.00" from="521425771#0" to="762101021#3"/>
    <trip id="339" depart="339.00" from="-557888641" to="-594008598#0"/>
    <trip id="340" depart="340.00" from="485992576#0" to="-487370225"/>
    <trip id="341" depart="341.00" from="-492944983" to="-273202552#1"/>
    <trip id="342" depart="342.00" from="-1008278378" to="18613712#1"/>
    <trip id="343" depart="343.00" from="31571806#0" to="1073938359#0"/>
    <trip id="344" depart="344.00" from="-736959495" to="495452792#0"/>
    <trip id="345" depart="345.00" from="494047090#3" to="18613724#0"/>
    <trip id="346" depart="346.00" from="491571763#3" to="756928316"/>
    <trip id="347" depart="347.00" from="629840742#1" to="450711235#0"/>
    <trip id="348" depart="348.00" from="485997876#0" to="760613094#1"/>
    <trip id="349" depart="349.00" from="18056345#34" to="28773399#3"/>
    <trip id="350" depart="350.00" from="469980060#1" to="754643165#0"/>
    <trip id="351" depart="351.00" from="681332275#0" to="-197368793#5"/>
    <trip id="352" depart="352.00" from="-488406259#3" to="1106661488"/>
    <trip id="353" depart="353.00" from="549451287#1" to="28948332"/>
    <trip id="354" depart="354.00" from="1055366855" to="-28948364#1"/>
    <trip id="355" depart="355.00" from="491571763#9" to="492962098#0"/>
    <trip id="356" depart="356.00" from="761997017#1" to="28696919#1"/>
    <trip id="357" depart="357.00" from="28679893#0" to="-28215678#1"/>
    <trip id="358" depart="358.00" from="-1489976620" to="18070525#2"/>
    <trip id="359" depart="359.00" from="11669819#13" to="-761957314"/>
    <trip id="360" depart="360.00" from="-28715949#7" to="776138811"/>
    <trip id="361" depart="361.00" from="688527412#3" to="28948357#0"/>
    <trip id="362" depart="362.00" from="762320820" to="985470925#1"/>
    <trip id="363" depart="363.00" from="487370332#1" to="-977789091"/>
    <trip id="364" depart="364.00" from="-1490232987#0" to="556967383#5"/>
    <trip id="365" depart="365.00" from="273202551#4" to="476947567"/>
    <trip id="366" depart="366.00" from="756109920#6" to="-494047090#3"/>
    <trip id="367" depart="367.00" from="28948431#4" to="455042921#1"/>
    <trip id="368" depart="368.00" from="28216593#0" to="-28715949#7"/>
    <trip id="369" depart="369.00" from="1252834556" to="1198209582#0"/>
    <trip id="370" depart="370.00" from="487370237" to="718352194"/>
    <trip id="371" depart="371.00" from="1184964047" to="492944984#0"/>
    <trip id="372" depart="372.00" from="1053903910" to="762042490#2"/>
    <trip id="373" depart="373.00" from="674361331" to="28773436#0"/>
    <trip id="374" depart="374.00" from="18640747#1" to="1109106082#3"/>
    <trip id="375" depart="375.00" from="11669819#4" to="817834415"/>
    <trip id="376" depart="376.00" from="1494338047#2" to="28697910#0"/>
    <trip id="377" depart="377.00" from="915726688" to="485992256#0"/>
    <trip id="378" depart="378.00" from="28766851#1" to="155096402"/>
    <trip id="379" depart="379.00" from="-496078553#0" to="1299095343#14"/>
    <trip id="380" depart="380.00" from="556967383#8" to="450711235#1"/>
    <trip id="381" depart="381.00" from="557206900" to="-557167339#0"/>
    <trip id="382" depart="382.00" from="28773435#0" to="759507492#0"/>
    <trip id="383" depart="383.00" from="18077180#0" to="492962080#0"/>
    <trip id="384" depart="384.00" from="-28948353" to="830894742#1"/>
    <trip id="385" depart="385.00" from="365762682" to="-753801944#1"/>
    <trip id="386" depart="386.00" from="-487370238" to="28780853#0"/>
    <trip id="387" depart="387.00" from="28780860#1" to="-28760108#5"/>
    <trip id="388" depart="388.00" from="952173023" to="755769006#3"/>
    <trip id="389" depart="389.00" from="192696454#1" to="-28948330#2"/>
    <trip id="390" depart="390.00" from="688262390#2" to="28696798#0"/>
    <trip id="391" depart="391.00" from="496643315#5" to="28697231#5"/>
    <trip id="392" depart="392.00" from="1001381429#2" to="688527412#11"/>
    <trip id="393" depart="393.00" from="886912614#1" to="-758669716#3"/>
    <trip id="394" depart="394.00" from="28780855#1" to="1486891426"/>
    <trip id="395" depart="395.00" from="756475999#3" to="28697231#2"/>
    <trip id="396" depart="396.00" from="738096020#0" to="735371982"/>
    <trip id="397" depart="397.00" from="100639070" to="630145551#1"/>
    <trip id="398" depart="398.00" from="155107725" to="761231650#1"/>
    <trip id="399" depart="399.00" from="28697231#18" to="674374038#0"/>
    <trip id="400" depart="400.00" from="1030247944#0" to="109069460#0"/>
    <trip id="401" depart="401.00" from="28948435#3" to="985470923#1"/>
    <trip id="402" depart="402.00" from="28216264#6" to="-485992574#0"/>
    <trip id="403" depart="403.00" from="28760121#2" to="1252750436"/>
    <trip id="404" depart="404.00" from="28780858#1" to="28766851#4"/>
    <trip id="405" depart="405.00" from="18640748" to="11669819#11"/>
    <trip id="406" depart="406.00" from="-496078558" to="492945101"/>
    <trip id="407" depart="407.00" from="28948352#0" to="-745515830#0"/>
    <trip id="408" depart="408.00" from="594491448#2" to="-1490273031#0"/>
    <trip id="409" depart="409.00" from="531596039#2" to="494607309#1"/>
    <trip id="410" depart="410.00" from="659441521#1" to="1489945776"/>