<?xml version="1.0" encoding="UTF-8"?>

<!-- generated on 2026-04-04 11:28:29 by Eclipse SUMO duarouter Version 1.18.0
<configuration xmlns:xsi="http://www.w3.org/2001/XMLSchema-instance" xsi:noNamespaceSchemaLocation="http://sumo.dlr.de/xsd/duarouterConfiguration.xsd">

    <input>
        <net-file value="osm.net.xml.gz"/>
        <route-files value="osm.rou.xml"/>
    </input>

    <output>
        <output-file value="precalculated_routes.rou.xml"/>
    </output>

    <report>
        <ignore-errors value="true"/>
    </report>

</configuration>
-->

<routes xmlns:xsi="http://www.w3.org/2001/XMLSchema-instance" xsi:noNamespaceSchemaLocation="http://sumo.dlr.de/xsd/routes_file.xsd">
    <vehicle id="0" depart="0.00">
        <route edges="367472353#10 367472353#11 761772521 759481494 1289421016#1 115346439#1 115346439#2 115346439#3 766172730#0 766172730#1 766172730#2 1253507704#0 1253507704#1 392819077 1289421017#0 1289421017#1 392819076#0 392819076#1 392819076#2 392819076#3 392819076#4 392819076#5 392819076#6 392819076#7 1467115625#0 1467115625#1 1467115625#2 1467115625#3 537644202#0 537644202#1 537644202#2 537644202#3 231900048 708432531#2 722417964#0 1226069624#0 11589658#1 11589658#2 11589658#3 11589658#4 11589658#5 11589658#6 11589658#7 11589658#8 11589658#9 1253507700#0 1253507700#1 1253507700#2 1253507700#3 1253507700#4 1253507700#5 -28213463#3 -28213463#2 -28213463#1 -28213463#0 -31559899#8 -31559899#7 -31559899#6 -31559899#5 -31559899#4 -31559899#3 -31559899#2 -31559899#1 -31559899#0 -762039043 -737746991 737746992#0 737746992#1 737775366#2 974977104#0 974977104#1 974977104#2 -737746990 -974977105 -28780634#3 -28780634#2 -28780634#1 -1025429157 -121870880#3 -121870880#2 -121870880#1"/>
    </vehicle>
    <vehicle id="1" depart="1.00">
        <route edges="-757334224#0 28523925#3 751784315#0 751784315#1 1305351687 735396097#0 735396097#1 735396097#2 717443264#2 717443264#3 717443264#4 717443264#5 761348386#1 31500642#0 31500642#1 31500642#2 31500642#3 31500642#4 1467094427 1467094427-AddedOffRampEdge 1391075927#1 1214106131 168971784-AddedOnRampEdge 168971784 735039174 1384898653 524573836#0 524573836#1 524573836#2 449551300 453253825#0 453253825#1 696144790#0 696144790#1 453253827#0 453253827#1 453253827#2 453253827#3 1263586498#0 1263586498#1 449551295 449551295-AddedOffRampEdge 1378151562 1263586499 1075646691#0 1075646691#1 1378151564 557184650 631712161#1 631712162#1 567637535 567637536#0 567637536#1 567637536#2 567637536#3 1001381428#0 1001381428#1 1001381428#2 1001381428#3 1377621015 28215667 28215795#8 -273202552#8 -273202552#7 -273202552#6 -273202552#5 -273202552#4 1055366855 952173023 -596306267#0 -557167339#3 -557167339#2 -557167339#1"/>
    </vehicle>
    <vehicle id="2" depart="2.00">
        <route edges="495447738#21 454203124#0 454203124#1 454203124#2 454203124#3 454203124#4 454203124#5 454203124#6 454203124#7 454203124#8 454203124#9 454203124#10 454203124#11 681048618#0 681048618#1 681048617 28849969 1467115626#1 11589658#0 11589658#1 11589658#2 11589658#3 11589658#4 11589658#5 11589658#6 11589658#7 11589658#8 11589658#9 1253507700#0 1253507700#1 1253507700#2 1253507700#3 1253507700#4 1253507700#5 1253507700#6 1253507700#7 1300135464#0 1300135464#1 1300135464#2 1308078224 762076869 1279284361 708432532#0 708432532#0-AddedOffRampEdge 708432532#1 708432532#2 708432532#3 1253346334 448329038 35677557 1290115153 18640751 696111994#0-AddedOnRampEdge 696111994#0 696111994#1 696111993#0 1371169725 1371169722 28193102#0 28193102#1 1371169728 762115004 762115003 1371169731 738111506 -28245898#2 -28245898#1 -28245898#0 676150371 676150373 974882095 18070525#0 18070525#1 18070525#2 18070525#3 18070525#4 121872398#0 121872398#1 18070225#0 18070225#1 18070225#2 18070225#3 18070225#4 749324782 749324781#0 749324781#1 749324781#2 749324781#3 526741029#0 526741029#1 526741029#2 556966709 483591533#0 483591533#1 483591533#2 483591533#3 483591533#4 483591533#5"/>
    </vehicle>
    <vehicle id="3" depart="3.00">
        <route edges="749428898 496643315#0 496643315#1 496643315#2 496643315#3 496643315#4 496643315#5 496643315#6 496643315#7 496643315#8 496643315#9 762320819 11669819#3 11669819#4 11669819#5 11669819#6 11669819#7 11669819#8 11669819#9 11669819#10 11669819#11 11669819#12 11669819#13 11669819#14 805288740#0 -761588428 -18077710#14 -18077710#13 -18077710#12 -18077710#11 -18077710#10 -18077710#9 -18077710#8 -18077710#7 -18077710#6 -18077710#5 -18077710#4 -18077710#2 -18077710#1 -18077710#0 692222151#0 692222151#1 449551359#0 449551359#1 1058786384 1058776741 1249398756#0 1249398756#1 1249895912 1263664035#0 1263664035#1 450695543#0 450695543#1 450695543#2 450695543#3 450695543#4 1370010731 629731296 1122236619 521425771#0 521425771#1 521425771#2 521425771#3 521425771#4 521425771#5 1252899185#1 1252899185#2 1252899185#3 749318782 521425773 629731294#0 629731294#1 450695544 450695539#1 450695540 450711235#0 450711235#1 1107211034#0 1107211034#1 449551309#1 449551309#2 449551309#3 449551309#4 449551309#5 449551309#6 449551309#7 449551312 449551330#0 449551330#1 761831721#0 761831721#1 659441521#0 659441521#1 1371169734 762115002 1371169729 756169345 28193058 1371169723 654096871 1371169720 760240741 484871113 1219442888 1219442889 759697244 1219442890 701220982#0 701220982#1 767782899#1 696130290#0 696130290#1 744809187 1299095344#0 1299095344#1 1299095344#2 -28193201#3 -28193201#2 -28193201#1 -28193201#0"/>
    </vehicle>
    <vehicle id="4" depart="4.00">
        <route edges="1378151561#0 1378151561#1 -761543188 -512201374#2 -512201374#1 -512201374#0 512201374#0 512201374#1 512201374#2 761543188 1263586500 1376627595 526737276#0 526737276#1 526737276#2 1263586499 1075646691#0 1075646691#1 1075646691#2 1252888132 449551330#0 449551330#1 1135359162 449551298 1263586497#0 1263586497#1 449551306#0 449551306#2 1288769140 1105764508 689908508 1288769143#1 1288769143#2 449551299#0 449551299#1 449551299#2 449551299#3 449551299#4 449551299#5 449551299#6 449551299#7 449551299#8 449551299#9 449551299#10 449551299#11 449551299#12 449551299#13 449551299#14 449551299#15 449551299#16 449551299#17 449551299#18 449551299#19 449551299#20 449551299#21 449551299#22 1249895892#0 1249895892#1 1249895892#2 812423077 495447740#0 495447740#1 495447740#2 698405411#0-AddedOnRampEdge 698405411#0 698405411#1 1432705405 681047134#0 681047134#1 693282550#0 693282550#1 693282550#2 681047133#0 681047133#1 681047133#2 1090935278#0 1090935278#1 1090935689 495447738#0 495447738#1 495447738#2 495447738#3 495447738#4 495447738#5 674847762 28132208#0 28132208#1 28132208#2 28132208#3 28132208#4 28132208#5 28132208#6 28132208#7 28132208#8 28132208#9 28132208#10 -1154172726#2 -1154172726#1 -1154172726#0 -675464571 -1281346424 -1281137778"/>
    </vehicle>
    <vehicle id="5" depart="5.00">
        <route edges="-535437102#1 -535437102#0 1154172726#0 1154172726#1 1154172726#2 -28132208#10 -28132208#9 -28132208#8 28132208#8 28132208#9"/>
    </vehicle>
    <vehicle id="6" depart="6.00">
        <route edges="-1242136241 -655580995 -491343517#3 -491343517#2 -491343517#1 -491343517#0 -944147564#1 -944147564#0 31559889#0 31559889#1 28780634#0 28780634#1 28780634#2 756149744 485795850 737775365 737775366#6 548051716#0 548051716#1 737746991 -762039044#2 -762039044#1 -762039044#0 535437098#1 535437098#2 1154210535#0 1154210535#1 1154210535#2 760579267 760579266#0 231900472 226870072#2 226870072#3 226870072#4 226870072#5 226870072#6 226870072#7 226870072#8 226870072#9 226870072#10 226870072#11 226870072#12 226870072#13 226870072#14 226870072#15 226870072#16 226870072#17 226870072#18 226870072#19 226870072#20 226870072#21 226870072#22 226870072#23 226870072#24 226870072#25 226870072#26 226870072#27 226870072#28 226870072#29 226870072#30 226870072#31 226870072#32 1253507696#0 1253507696#1 1253507696#2 826806101#0 826806101#1 28131975#0 28131975#1 28131975#2 28131975#3 28131975#4 28131975#5 28131975#6 -1282838792#5 -1282838792#4 -1282838792#3 -1282838792#2 -1282838792#1 -1282838792#0 -492067243#7 -492067243#6 -492067243#5 -492067243#4 -492067243#3 -492067243#2 -492067243#1 -492067243#0"/>
    </vehicle>
    <vehicle id="7" depart="7.00">
        <route edges="447937853 653918302#0 653918302#1 446523614#1 446523614#1-AddedOffRampEdge 935249420#0 1279284362 1154210535#5 1154210535#6 1154210535#7 1154210535#8 1154210535#9 1154210535#10 1154210535#11 1154210535#12 1154210535#13 1154210535#14 1154210535#15 1154210535#16 1154210535#17 1154210535#18 1154210535#19 1467115624#1 1467115624#2 1282090559#0 1282090559#1 1282090558#1 28213527#0 28213527#1 28213527#2 28213527#3 -169243383 28224967 -28224946#3 28224946#3"/>
    </vehicle>
    <vehicle id="8" depart="8.00">
        <route edges="-537042053#5 -537042053#4 -537042053#3 -537042053#2 -537042053#1 -537042053#0 1253507713#1 28219053#0 28219053#1 28219053#2 28219053#3 456730850 456730847#1 474692374#0 474692374#1 474692374#2 760615600 751491399#0 751491399#1 751491398#1 751491398#2 751491398#3 751491398#4 751491398#5 1229594668#0 1229594668#1 1229594668#2 1229594668#3 1229594668#4 449551281#0 449551281#1 449551281#2 449551281#3 449551281#4 449551281#5 449551281#6 535178029#0 535178029#1 449551300 453253825#0 453253825#1 696144790#0 696144790#1 453253827#0 453253827#1 453253827#2 453253827#3 1263586498#0 1263586498#1 449551295 449551295-AddedOffRampEdge 1378151562 1263586499 1075646691#0 1075646691#1 1075646691#2 453439709 453439715#0 453439715#1 453439715#2 453439715#3 453439715#4 453439715#5 453439711#1 453439713#1 453439710#0 453439710#1 453439710#2 453439714#1 453439714#2 453439714#3 492263526#0 492263526#1 492263526#2 491571763#1 491571763#2 491571763#3 491571763#4 491571763#5 491571763#6 557184649 -28948364#9 -28948364#8 -28948364#7 -28948330#2 -28948330#1 -28948330#0 28948330#0"/>
    </vehicle>
    <vehicle id="10" depart="10.00">
        <route edges="646391950#0 168971786#0 168971786#1 168971786#2 168971786#3 717443262#0 717443262#1 761348385#1 634494622#1 634494622#2 634494623 761795972#1 761795972#2 18074456#0 18074456#1-AddedOnRampEdge 18074456#1 18074456#2 18074456#3 18074456#4 758657055 744809187 1299095344#0 1299095344#1 1299095344#2 482346487#0 482346487#1 684082104 737179489#0 737179489#1 737179489#2 737179489#3 737179489#4 737179489#5 737179489#6 737179489#7 737179489#8 737179489#9 737179489#10 18613712#0 18613712#1 18613712#2 18613712#3 18613712#4 18613712#5 18613712#6 18613712#7 18613712#8 18613712#9 18613712#10 18613712#11 18613712#12 18613712#13 18613712#14 18613712#15 1098855978 1098855979 701753253#0 701753253#1 749367765#0 749367765#1 749367765#2 749367765#3 749367765#4 109069459#1 109069459#2 109069459#3 109069459#4 109069459#5 109069459#6 109069459#7 109069459#8 109069459#9 109069459#10 109069459#11 109069459#12 1107148125#0 1107148125#1 749367766#0 749367766#2 721561641 550355389#0 550355389#2 229362109#0 229362109#1 229362109#2 762120149#0 762120149#1 762120149#1-AddedOffRampEdge 688260679#0 1119742598 749959947#0 749959947#1 749959947#2 749959947#3 749959946#0 749959946#1 749959946#2 1156967550#0 1156967550#1 109069458#0 109069458#1 109069458#2 109069458#3 1252750445 760613094#0 760613094#1 487370077#0 487370077#1 487370077#2 487370077#3 688522169#0 688522169#1 688522170 487370075 749318625#1 28216524#0 28216524#1 28216524#2 28216524#3 749318590#1 749318590#2 749318590#3 749318590#4 749318590#5 749318053#0 749318053#2 630106503#0 630106503#2 14183151#0 14183151#1 14183151#2 14183151#3 1490273030#1 1490273030#2 1490273030#3 634689736 634689734 1007578188#1 485997876#0 485997876#1 485997876#2 485997876#3 485997876#4 485997876#5 485997876#6 485997876#7 485997876#8"/>
    </vehicle>
    <vehicle id="11" depart="11.00">
        <route edges="109069459#3 109069459#4 109069459#5 109069459#6 109069459#7 109069459#8 109069459#9 109069459#10 109069459#11 674369906#0 674369906#1 -568042676#4 -568042676#3 -568042676#2 -568042676#1 -568042676#0 -765642085 28801011#0 28801011#1 1096784529 531596039#0 531596039#1 531596039#2 1323145196 674918309 766852256#0 766852256#1 18056190#0 18056190#0-AddedOffRampEdge 18056190#1 18056190#2 777655376 768027248#0 768027248#1 768027248#2 768027248#4 192692994#0 192692994#1 192692994#2 192692994#3 192692994#4 192692994#5 483611732 759678731#0 759678731#1 192692986#1 192692986#2 192692986#3 192692986#4 192692986#5 192692986#6 192692986#7 192692986#8 1353103774 688941733 1219443362 1371169724 1219443363#0 1219443363#1 192696451#1 11668561 11668561-AddedOffRampEdge 448234331 758609329 447937853-AddedOnRampEdge 447937853 653918302#0 653918302#1 446523614#1 446523614#1-AddedOffRampEdge 446523614#2 446523614#3 446523614#4 446523614#5 446523614#6 446523614#7 1253507698 761849320#0 761849320#1 761849320#2 761849320#3 1253507697 708432531#0 708432531#1 708432531#2 722417964#0 1226069624#0 11589658#1 11589658#2 11589658#3 11589658#4 11589658#5 758941539#0 758941539#1 758941539#2 1101788200 -392820646#8 -392820646#7 -392820646#6 -392820646#5 -392820646#4 -392820646#3 -392820646#2 -392820646#1"/>
    </vehicle>
    <vehicle id="12" depart="12.00">
        <route edges="824503966#0 -824503963 29172920#4 29172920#5 -29172921#5 -29172921#4 -29172921#3 -29172921#2 -29172921#1 -29172921#0 -31501486#2 -31501486#1 -31501486#0 31501477#0 31501477#1 752881986 737743194 737743193 1063222212 535489134#0 535489134#1 1282090567 1108607657 1108607658 766813857 676157433#1 1282090544#0 1282090544#1 1282090544#2 226870072#0 226870072#1 226870072#2 226870072#3 226870072#4 226870072#5 226870072#6 226870072#7 226870072#8 226870072#9 226870072#10 226870072#11 226870072#12 226870072#13 226870072#14 226870072#15 226870072#16 226870072#17 226870072#18 226870072#19 226870072#20 226870072#21 226870072#22 226870072#23 226870072#24 226870072#25 226870072#26 226870072#27 226870072#28 226870072#29 226870072#30 226870072#31 226870072#32 1253507696#0 1253507696#1 1253507696#2 826806101#0 826806101#1 1253507706 1467115625#0 1467115625#1 1467115625#2 1467115625#3 537644202#0 537644202#1 537644202#2 537644202#3 231900048 708432531#2 722417964#0 1226069624#0 11589658#1 11589658#2 11589658#3 11589658#4 11589658#5 758941539#0 758941539#1 758941539#2 1101788200 -392820646#8 -392820646#7 -392820646#6 -392820646#5 -392820646#4 -392820646#3 -392820646#2 -392820646#1 -392820646#0 -28132208#17 -28132208#16 -28132208#15 -28132208#14 -28132208#13 -28132208#12 -28132208#11 -28132208#10 -28132208#9 -28132208#8 -28132208#7 -28132208#6 -31542140#1 -31542140#0 -1082611436#1 -1082611436#0 1082611436#0"/>
    </vehicle>
    <vehicle id="13" depart="13.00">
        <route edges="-28213277#4 -28213277#3 -31541896#1 -31541896#0 -879559173#1 -879559173#0 1101788201#0 1101788201#1 1101788201#2 1101788201#3 11589658#7 11589658#8 11589658#9 1253507700#0 1253507700#1 1253507700#2 1253507700#3 1253507700#4 1253507700#5 1253507700#6 1253507700#7 1300135464#0 1300135464#1 1300135464#2 1308078224 762076869 1279284361 708432532#0 708432532#0-AddedOffRampEdge 708432532#1 708432532#2 708432532#3 1253346334 448329038 35677557 1290115153 18640751 696111994#0-AddedOnRampEdge 696111994#0 696111994#1 696111993#0 1371169725 1371169722 28193102#0 28193102#1 1371169728 762115004 1371169733 1378151563 531422604#1 531422604#2 1075646689#0 1075646691#0 1075646691#1 1378151564 557184650 631712161#1 631712162#1 567637535 567637536#0 567637536#1 567637536#2 567637536#3 1001381428#0 1001381428#1 -28215678#4 -28215678#3"/>
    </vehicle>
    <vehicle id="14" depart="14.00">
        <route edges="696111994#1 696111993#0 1371169725 1371169722 28193102#0 28193102#1 1371169728 28799961 1371169727 761559698#0 761559698#1 654447206#0 654447206#1 549451286 549451287#0 549451287#1 1288769140 1105764508 689908508 -654415313#2 -654415313#1 -654415313#0 527715758#0 527715758#1 527715758#2 1384898653 1001690155 557555671#0 557555671#1 1085236379 723119359#0 723119359#1 723119359#2 723119359#3 723119359#4 723119359#5 723119359#6 723119359#7 494970759#0 494970759#1 -453236381#5 -453236381#4 -453236381#3 -453236381#2 -453236381#1 -453236381#0 699354251#3 699354251#4 699354251#5 699354251#6 699354247#0 699354247#1 699354247#2 699354247#2-AddedOffRampEdge 494970767#0 494970767#1 494970767#2 494970767#3 494970767#4 1118312621#0 1118312621#1 28957454#0 28957454#1 28957454#2 28957454#3"/>
    </vehicle>
    <vehicle id="15" depart="15.00">
        <route edges="652559891 652837120 1466871346 491265987#1 484488918#0 484488918#1 557560276#0 557560276#1 1214690795#0 1214690795#1 1214690795#2 1214690795#3 1485796593 -732710202#0 637743523#1 1281358307#0 1281358307#1 1281358307#2 1281358307#3 1281358307#4 1281358307#5 1008056472#0 1008056472#1 682246895#0 682246895#1 1090935690#0 1090935690#1 1090935690#2 1090935690#3 1090935277#0 1090935277#1 1090935277#2 1090935277#3 28847130#0 28847130#1 28847130#2 28847130#3 28847130#4 28847130#5 28847130#6 685554494 685541462 524568142 28213346 691960993#0 691960993#1 691960993#2 691960993#3 691960993#4 691960993#5 691960993#6 691960993#7 761799877 761799876#0 761799876#1 1491077187 691960992#1 691960992#2 691960992#3 691960992#4 691960992#5 691960992#6 691960992#7 28219233#0 28219233#1 28219233#2 1487707498 28219241 1487710045#0 1487710045#1 28219234#0 28219234#1 699354251#0 699354251#1 699354251#2 699354251#3 699354251#4 699354251#5 699354251#6 699354247#0 699354247#1 699354247#2 699354247#2-AddedOffRampEdge 494970767#0 494970767#1 494970767#2 494970767#3 494970767#4 1118312621#0 1118312621#1 1118312621#2 28220100#1 1118312620#0 1118312620#1 1118312620#2 1118312620#3 1229594668#0 1229594668#1 1229594668#2 1229594668#3 1229594668#4 449551281#0 449551281#1 449551281#2 449551281#3 449551281#4 449551281#5 449551281#6 535178029#0 535178029#1 449551300 453253825#0 453253825#1 696144790#0 696144790#1 453253827#0 453253827#1 453253827#2 453253827#3 1263586498#0 1263586498#1 449551295 449551295-AddedOffRampEdge 1378151562 1263586499 1075646691#0 1075646691#1 1075646691#2 453439709 453439715#0 453439715#1 453439715#2 453439715#3 453439715#4 453439715#5 453439711#1 453439713#1 453439710#0 453439710#1 453439710#2 453439714#1 453439714#2 453439714#3 630498224 521425772#0 521425772#1 521425772#2 449551297#1 449551297#2 449551297#3 449551297#4 449551297#5 845235177#0 845235177#0-AddedOffRampEdge 845235177#1 1370010728 630493200 1370010732 449551337#0 449551337#1 449551337#2 449551337#3 450695556#0 762051410#0 762051410#1 812717597 452025608 18077710#0 18077710#1 18077710#2 18077710#3 18077710#5 18077710#6 18077710#7 18077710#8 18077710#9 18077710#10 18077710#11 18077710#12 18077710#13 18077710#14 18077710#15 736959495 674374038#6 674374038#7 674374038#8 674374038#9 -11669819#14 -11669819#13 -11669819#12 -11669819#11 -11669819#10 -11669819#9 -11669819#8 -11669819#7 -11669819#6 -11669819#5 -11669819#4 -11669819#3 -11669819#2 -11669819#1 -11669819#0 770276213#0 770276213#1 770276213#2 770276213#3 770276213#4 -770276214 494047090#0 494047090#1 494047090#2 494047090#3 494047090#4 494047090#5 494047090#6 494047090#7 494047090#8"/>
    </vehicle>
    <vehicle id="16" depart="16.00">
        <route edges="28215845#2 -1486913638#0 28215834#0 28215834#1 28215834#2 1001381429#1 1001381429#2 1118849867 566904821 1064258192 979958461 567637537#1 28799871#0 28799871#1 28799871#2 28799871#3 512201374#0 512201374#1 512201374#2 761543188 1263586500 1376627595 526737276#0 526737276#1 526737276#2 1263586499 1075646691#0 1075646691#1 1075646691#2 1252888132 449551330#0 449551330#1 1135359162 449551298 1263586497#0 1263586497#1 449551306#0 449551306#2 1288769140 1105764508 689908508 1288769143#1 1288769143#2 449551299#0 449551299#1 449551299#2 449551299#3 449551299#4 449551299#5 775150631#0 775150631#1 775150631#2 28224974#0 28224974#1 28224974#2 28224974#3 28224974#4 28224974#5 28224974#6 28224974#7 31559884#0 31559884#1 31559884#2 -491343517#3 -491343517#2 -491343517#1 -491343517#0 -944147564#1 756442093#0 756442093#1 913445861#0"/>
    </vehicle>
    <vehicle id="17" depart="17.00">
        <route edges="1229594668#1 1229594668#2 1229594668#3 1229594668#4 449551281#0 449551281#1 449551281#2 449551281#3 449551281#4 449551281#5 449551281#6 535178029#0 771588342#0 771588342#1 771588342#2 1085236379 723119359#0 723119359#1 723119359#2 723119359#3 723119359#4 723119359#5 723119359#6 723119359#7 494970759#0 494970759#1 1490340166#0 1490340166#1 1490340166#2 1490340166#3 1490340166#4 494970769#1 494970769#2 756853101#0 756853101#1 756853101#2 756853101#3 756853101#4 524574454#0 524574454#1 524574454#2 524574454#3 524574454#4 524574454#5 634654679 557551802 762094025 168971786#0 168971786#1 168971786#2 168971786#3 717443262#0 717443262#1 761348385#1 634494622#1 634494622#2 31500648#0 31500648#1 -975632848#2 28534178#1"/>
    </vehicle>
    <vehicle id="18" depart="18.00">
        <route edges="685550351#1 454203125 454203124#2 454203124#3 454203124#4 454203124#5 454203124#6 454203124#7 454203124#8 454203124#9 454203124#10 454203124#11 681048618#0 681048618#1 681048617 28849969 1467115626#1 11589658#0 11589658#1 11589658#2 11589658#3 11589658#4 11589658#5 11589658#6 11589658#7 11589658#8 11589658#9 1253507700#0 1253507700#1 1253507700#2 1253507700#3 1253507703 761849320#0 761849320#1 761849320#2 761849320#3 1253507697 708432531#0 708432531#1 708432531#2 448184895 537644202#8 537644202#9 -217407237#5 -217407237#4 -217407237#3 -217407237#2 -217407237#1 -217407237#0 -1289421018#2 -1289421018#1 -1289421018#0 -1282838798 779810087 779810088#0 779810088#1 779810088#2 1289421017#1 1253507705#0 1253507705#1 367472353#0 367472353#1 367472353#2 367472353#3 367472353#4 367472353#5 367472353#6 367472353#7 367472353#8 367472353#9 367472353#10 367472353#11 761772521 29278567#0 29278567#1 29278567#2 29278567#3 29278567#4 29278567#5 29278567#6 29278567#7 29278567#8 29278567#9 29278567#10 29278567#11 740593661 766813856 1042797562#0 1042797562#1 28194154#1 28194154#2 -535489134#1 -535489134#0 -1063222212 -737743193 28523925#0 28523925#1 28523925#2 28523925#3 -728948717 -31501477#1 -31501477#0 31501486#0 31501486#1 31501486#2 29172921#0 29172921#1 29172921#2 29172921#3 29172921#4 29172921#5 752099743 31502466#0 31502466#1 31502466#2 31502466#3 31502466#4"/>
    </vehicle>
    <vehicle id="19" depart="19.00">
        <route edges="723119359#7 494970759#0 494970759#1 -453236381#5 -453236381#4 -453236381#3 -453236381#2 -453236381#1 -453236381#0 699354251#3 699354251#4 699354251#5 699354251#6 699354247#0 699354247#1 699354247#2 699354247#2-AddedOffRampEdge 494970767#0 494970767#1 494970767#2 494970767#3 494970767#4 1118312621#0 1118312621#1 1118312621#2 28220100#1 1118312620#0 1118312620#1 1118312620#2 1118312620#3 1229594668#0 1229594668#1 1229594668#2 1229594668#3 1229594668#4 449551281#0 449551281#1 449551281#2 449551281#3 449551281#4 449551281#5 449551281#6 535178029#0 535178029#1 449551300 453253825#0 453253825#1 696144790#0 696144790#1 453253827#0 453253827#1 453253827#2 453253827#3 1263586498#0 1263586498#1 449551295 449551295-AddedOffRampEdge 1378151562 1263586499 1075646691#0 1075646691#1 1075646691#2 453439709 453439715#0 453439715#1 453439715#2 453439715#3 453439715#4 453439715#5 453439711#1 453439713#1 453439710#0 453439710#1 453439710#2 453439714#1 453439714#2 453439714#3 630498224 521425772#0 521425772#1 521425772#2 449551297#1 449551297#2 449551297#3 449551297#4 449551297#5 845235177#0 845235177#0-AddedOffRampEdge 845235177#1 1370010728 630493200 450695536 630466957#0 756138856#0 756138856#1 248618360#0 248618360#1 248618360#2 248618360#3 248618360#4 719606918#0 719606918#1 719606918#2 719606918#3 719606918#4 719606918#5 719606918#6 18056345#0 18056345#1 18056345#2 18056345#3 18056345#4 18056345#5 18056345#6 18056345#7 18056345#8 18056345#9 18056345#10 18056345#11 18056345#12 18056345#13 18056345#14 18056345#15 18056345#16 18056345#17 18056345#18 18056345#19 18056345#20 18056345#21 18056345#22 18056345#23 18056345#24 18056345#25 18056345#28 18056345#29 18056345#30 18056345#31 18056345#32 18056345#33 18056345#34 18056345#35 18056345#36 18056345#37 18056345#38 18056345#39 18056345#40 755769067#0 755769067#1 755769006#0 755769006#1 755769006#2 755769006#4 550355392#0 760613094#0 760613094#1 487370077#0 487370077#1 487370077#2 487370077#3 688522169#0 688522169#1 688522170 487370075 749318625#1 28216524#0 28216524#1 28216524#2 28216524#3 749318590#1 749318590#2 749318590#3 749318590#4 749318590#5 749318053#0 749318053#2 630106503#0 630106503#2 14183151#0 14183151#1 14183151#2 14183151#3 1490273030#1 1490273030#2 1490273030#3 634689736 634689734 1007578188#1 485997876#0 485997876#1 485997876#2 1490232987#0 1490232987#1 28760125"/>
    </vehicle>
    <vehicle id="20" depart="20.00">
        <route edges="487370354 28696808#1 28696808#2 28696808#3 18056345#16 18056345#17 18056345#18 18056345#19 18056345#20 18056345#21 18056345#22 18056345#23 18056345#24 18056345#25 18056345#28 18056345#29 18056345#30 18056345#31 18056345#32 18056345#33 18056345#34 18577339#0 18577339#1 18577339#2 18577339#3 18577339#4 18577339#5 18577339#6 18577339#7 1493471699#0 1493471699#1 1493471699#2 1493471699#3 1323145196 674918309 766852256#0 766852256#1 18056190#0 18056190#0-AddedOffRampEdge 18056190#1 18056190#2 777655376 768027248#0 768027248#1 768027248#2 768027248#4 192692994#0 192692994#1 192692994#2 192692994#3 192692994#4 192692994#5 483611732 759678731#0 759678731#1 192692986#1 192692986#2 192692986#3 192692986#4 192692986#5 192692986#6 192692986#7 192692986#8 1353103774 688941733 1219443362 1371169724 1219443363#0 1219443363#1 192696451#1 11668561 11668561-AddedOffRampEdge 448234331 758609329 447937853-AddedOnRampEdge 447937853 653918302#0 653918302#1 446523614#1 446523614#1-AddedOffRampEdge 446523614#2 446523614#3 446523614#4 446523614#5 446523614#6 446523614#7 1253507698 761849320#0 761849320#1 761849320#2 761849320#3 1253507697 708432531#0 708432531#1 708432531#2 722417964#0 1226069624#0 11589658#1 11589658#2 11589658#3 11589658#4 11589658#5 758941539#0 758941539#1 758941539#2 28194353#0 28194353#1 28194353#2 28194353#3 28194353#4 28194353#5 28194353#6 28194353#7 28194353#8 28194353#9 28194353#10 28194353#11 28194353#12 28194353#13 681048618#1 681048617 28849982 749332410#1 28849976#1 28849976#2 685542737#0 685542737#1 685550351#0 685550351#1 685553316#0 28190620#0 28190620#1 28190620#2 28190620#3 28190620#4 1466856249#0 1466856249#1 1466856249#2 1466856252#0 -1466856252#0"/>
    </vehicle>
    <vehicle id="21" depart="21.00">
        <route edges="-558662759#0 -752099744 -31502466#16 -31502466#15 -31502466#14 -31502466#13 -31502466#12 -31502466#11 -31502466#10 -31502466#9 -31502466#8 -31502466#7 -31502466#6 -31502466#5 -31502466#4 -31502466#3 -31502466#2 -31502466#1 -31502466#0 -752099743 -29172921#5 -29172921#4 -29172921#3 -29172921#2 -29172921#1 -29172921#0 -31501486#2 -31501486#1 -31501486#0 31501477#0 31501477#1 728948717 751784315#0 751784315#1 1305351687 735396097#0 735396097#1 735396097#2 717443264#2 717443264#3 717443264#4 717443264#5 761348386#1 31500642#0 31500642#1 31500642#2 31500642#3 31500642#4 1467094427 1467094427-AddedOffRampEdge 1391075927#1 1214106131 168971784-AddedOnRampEdge 168971784 1282090549 527715330#1 1214088255 -1197048070 654415313#1 654415313#2 1288769143#1 1288769143#2 449551299#0 449551299#1 449551299#2 449551299#3 449551299#4 449551299#5 775150631#0 775150631#1 775150631#2 28224974#0 28224974#1 28224974#2 28224974#3 28224974#4 28224974#5 28224974#6 28224974#7 31559884#0 31559884#1 31559884#2 -491343517#3 -491343517#2 -491343517#1 -491343517#0 -944147564#1 -944147564#0 31559889#0 31559889#1 -732666664#3 -732666664#2 -732666664#1 -732666664#0 -735079165#3 -735079165#2 -735079165#1 -735079165#0 824408370#0 -824408370#0"/>
    </vehicle>
    <vehicle id="22" depart="22.00">
        <route edges="-28132208#4 28132208#4 28132208#5 28132208#6 28132208#7 28132208#8 28132208#9 28132208#10 28132208#11 28132208#12 28132208#13 28132208#14 28132208#15 28132208#16 28132208#17 392820646#0 392820646#1 392820646#2 392820646#3 392820646#4 392820646#5 392820646#6 392820646#7 392820646#8 1101788201#0 1101788201#1 1101788201#2 1101788201#3 11589658#7 11589658#8 11589658#9 1253507700#0 1253507700#1 1253507700#2 1253507700#3 1253507700#4 1253507700#5 1253507700#6 1253507700#7 1300135464#0 1300135464#1 1300135464#2 1308078224 762076869 1279284361 708432532#0 708432532#0-AddedOffRampEdge 708432532#1 708432532#2 708432532#3 1253346334 448329038 35677557 1290115153 18640751 696111994#0-AddedOnRampEdge 696111994#0 696111994#1 696111993#0 1371169725 653351447 1353103775 192696454#0 192696454#1 192696454#2 192696454#3 192696454#4 192696454#5 192696454#6 192696454#7 689901492#0 689901492#1 481753148 192692992#0 192692992#1 192692992#2 192692992#2-AddedOffRampEdge 192692992#3 760232627#0 760232627#1 31602578 760232626 495452792#0-AddedOnRampEdge 495452792#0 495452792#1 495452792#2 495452792#3 495452792#4 495452792#5 495452792#6 495452792#7 759648343#0 759648343#1 766852255 531596037#1 -1106697784 -674918309 -1323145196 557219733#0 557219733#1 557219733#2 557219733#3 557219733#4 557219733#5 1252834549 568042675#1 568042675#2 568042675#3 -568042675#3 -568042675#2 -568042675#1 -568042675#0"/>
    </vehicle>
    <vehicle id="23" depart="23.00">
        <route edges="-28224946#3 28224946#3 28224946#4 28224946#5 28224957#0 28224957#1 28224957#2 1283302298#0 1283302298#1 490044582#0 490044582#1 490044582#2 -593611829#1 -593611829#0 -28224974#7 -28224974#6 -28224974#5 -28224974#4 -28224974#3 -28224974#2 -28224974#1 -28224974#0 775150630#0 775150630#1 775150630#2 449551299#7 449551299#8 449551299#9 449551299#10 449551299#11 449551299#12 449551299#13 449551299#14 449551299#15 449551299#16 449551299#17 449551299#18 449551299#19 449551299#20 449551299#21 449551299#22 1249895892#0 1249895892#1 1249895892#2 812423077 495447740#0 495447740#1 495447740#2 698405411#0-AddedOnRampEdge 698405411#0 698405411#1 1432705405 681047134#0 681047134#1 693282550#0 693282550#1 693282550#2 681047133#0 681047133#1 681047133#2 1090935278#0 1331194136 28847130#2 28847130#3 28847130#4 28847130#5 28847130#6 -760494618#1 -760494618#0"/>