<?xml version="1.0" encoding="UTF-8"?>

<!-- generated on 2026-04-09 20:35:32.409511 by randomTrips.py UNKNOWN
<configuration>
    <net-file value="osm_golden_v2.net.xml"/>
    <route-file value="precalculated.rou.xml"/>
    <end value="1800.0"/>
</configuration>
-->

<routes xmlns:xsi="http://www.w3.org/2001/XMLSchema-instance" xsi:noNamespaceSchemaLocation="http://sumo.dlr.de/xsd/routes_file.xsd">
    <trip id="0" depart="0.00" from="37018609#15" to="-1108814696"/>
    <trip id="1" depart="1.00" from="-594801553#2" to="-496601771#1"/>
    <trip id="2" depart="2.00" from="496038066#0" to="488420367#2"/>
    <trip id="3" depart="3.00" from="736957429#3" to="-28780858#0"/>
    <trip id="4" depart="4.00" from="1294695413#1" to="-1190328552"/>
    <trip id="5" depart="5.00" from="-495428551#1" to="28715915#2"/>
    <trip id="6" depart="6.00" from="-1108814698#0" to="-493594315#2"/>
    <trip id="7" depart="7.00" from="450695543#1" to="28932362#1"/>
    <trip id="8" depart="8.00" from="-496038074" to="29851020#0"/>
    <trip id="9" depart="9.00" from="557167340" to="-100640214#3"/>
    <trip id="10" depart="10.00" from="556966700#0" to="492512023#4"/>
    <trip id="11" depart="11.00" from="-929603370" to="-435993156#1"/>
    <trip id="12" depart="12.00" from="765634131#4" to="-983146273#0"/>
    <trip id="13" depart="13.00" from="-28799328#2" to="-28932352#1"/>
    <trip id="14" depart="14.00" from="674369964#1" to="31295240#3"/>
    <trip id="15" depart="15.00" from="556966712#1" to="496038066#1"/>
    <trip id="16" depart="16.00" from="28773432#7" to="872868375#2"/>
    <trip id="17" depart="17.00" from="1051008561" to="28932708#6"/>
    <trip id="18" depart="18.00" from="627197607#1" to="31593623#3"/>
    <trip id="19" depart="19.00" from="689818830#3" to="28948420#0"/>
    <trip id="20" depart="20.00" from="492499534" to="-1487278800"/>
    <trip id="21" depart="21.00" from="-496584800#0" to="-733008036"/>
    <trip id="22" depart="22.00" from="-28245898#3" to="-496829905"/>
    <trip id="23" depart="23.00" from="-28932342" to="-676439513#0"/>
    <trip id="24" depart="24.00" from="35309648#1" to="1049580577"/>
    <trip id="25" depart="25.00" from="1023523166#0" to="-495133924#2"/>
    <trip id="26" depart="26.00" from="-557190884#2" to="760517045#4"/>
    <trip id="27" depart="27.00" from="449551313#8" to="31295350#12"/>
    <trip id="28" depart="28.00" from="-485997876#10" to="496038052#1"/>
    <trip id="29" depart="29.00" from="-482380359#1" to="1108777320"/>
    <trip id="30" depart="30.00" from="950273640#0" to="449551337#0"/>
    <trip id="31" depart="31.00" from="28932382#7" to="491571535#2"/>
    <trip id="32" depart="32.00" from="654859816#9" to="497546906#6"/>
    <trip id="33" depart="33.00" from="-496601755#0" to="-1250688970#0"/>
    <trip id="34" depart="34.00" from="-758720476#5" to="-594810201"/>
    <trip id="35" depart="35.00" from="-494646712#1" to="761957312"/>
    <trip id="36" depart="36.00" from="718244637#0" to="-776403095"/>
    <trip id="37" depart="37.00" from="453455941#7" to="1242181336#4"/>
    <trip id="38" depart="38.00" from="752731401#4" to="158980715#0"/>
    <trip id="39" depart="39.00" from="-556966717#0" to="-497093800#4"/>
    <trip id="40" depart="40.00" from="28932708#9" to="-557233218#5"/>
    <trip id="41" depart="41.00" from="28948364#0" to="746835435"/>
    <trip id="42" depart="42.00" from="11669819#9" to="-496584781#0"/>
    <trip id="43" depart="43.00" from="985091148#2" to="28760106#2"/>
    <trip id="44" depart="44.00" from="-28773434#7" to="-1488374367"/>
    <trip id="45" depart="45.00" from="-28934540#2" to="35309824#5"/>
    <trip id="46" depart="46.00" from="508304349#1" to="1426002413#0"/>
    <trip id="47" depart="47.00" from="-155096398#0" to="1109088804#1"/>
    <trip id="48" depart="48.00" from="981130218#0" to="28780853#1"/>
    <trip id="49" depart="49.00" from="837040168#0" to="692793926#7"/>
    <trip id="50" depart="50.00" from="-101677175" to="494646806#0"/>
    <trip id="51" depart="51.00" from="487370332#1" to="28874827#8"/>
    <trip id="52" depart="52.00" from="-557190884#1" to="450695543#1"/>
    <trip id="53" depart="53.00" from="-28934562#4" to="1488417018"/>
    <trip id="54" depart="54.00" from="1490842400#0" to="764070766#3"/>
    <trip id="55" depart="55.00" from="717267441#1" to="-557529517#1"/>
    <trip id="56" depart="56.00" from="28215850#3" to="-491571537#1"/>
    <trip id="57" depart="57.00" from="750625105#1" to="717267441#3"/>
    <trip id="58" depart="58.00" from="-733013644" to="449551313#4"/>
    <trip id="59" depart="59.00" from="31255670#4" to="-31602564#2"/>
    <trip id="60" depart="60.00" from="496830031#10" to="28908034"/>
    <trip id="61" depart="61.00" from="497108862" to="28780910#0"/>
    <trip id="62" depart="62.00" from="-100016660#2" to="-914679594"/>
    <trip id="63" depart="63.00" from="-1049283262" to="758669716#6"/>
    <trip id="64" depart="64.00" from="726031709#1" to="636729729#8"/>
    <trip id="65" depart="65.00" from="-752865304" to="-1495495245"/>
    <trip id="66" depart="66.00" from="722553582" to="762101023#0"/>
    <trip id="67" depart="67.00" from="-28760120#0" to="273202551#0"/>
    <trip id="68" depart="68.00" from="-18070004#1" to="497061604"/>
    <trip id="69" depart="69.00" from="497048626#1" to="-29068595#0"/>
    <trip id="70" depart="70.00" from="18070525#2" to="28932702"/>
    <trip id="71" depart="71.00" from="-556967383#2" to="722313551#2"/>
    <trip id="72" depart="72.00" from="1296688839#10" to="-495452795#3"/>
    <trip id="73" depart="73.00" from="28799324#3" to="496038073"/>
    <trip id="74" depart="74.00" from="-492962258" to="-762958274"/>
    <trip id="75" depart="75.00" from="974973684#0" to="458897450#3"/>
    <trip id="76" depart="76.00" from="1485752238" to="28773409#1"/>
    <trip id="77" depart="77.00" from="-28940711#3" to="-496601788#0"/>
    <trip id="78" depart="78.00" from="-915718815" to="29851008#0"/>
    <trip id="79" depart="79.00" from="-496601774#1" to="-496584793"/>
    <trip id="80" depart="80.00" from="-18077710#8" to="37018609#24"/>
    <trip id="81" depart="81.00" from="-496601753#1" to="749672157-AddedOnRampEdge"/>
    <trip id="82" depart="82.00" from="688539431#2" to="-197368793#0"/>
    <trip id="83" depart="83.00" from="-496829895" to="485997876#14"/>
    <trip id="84" depart="84.00" from="-494646842#0" to="-29851020#2"/>
    <trip id="85" depart="85.00" from="758729183" to="28940757"/>
    <trip id="86" depart="86.00" from="18056345#37" to="508304348#10"/>
    <trip id="87" depart="87.00" from="556966717#0" to="-492945042"/>
    <trip id="88" depart="88.00" from="-28874827#4" to="1487013042"/>
    <trip id="89" depart="89.00" from="1296688839#7" to="18071437#3"/>
    <trip id="90" depart="90.00" from="494646852#1" to="487370333"/>
    <trip id="91" depart="91.00" from="916258235" to="-28932382#0"/>
    <trip id="92" depart="92.00" from="118888671#1" to="-998685169"/>
    <trip id="93" depart="93.00" from="689818830#3" to="-497108779#0"/>
    <trip id="94" depart="94.00" from="-492248007#0" to="1493494050#1"/>
    <trip id="95" depart="95.00" from="1294695413#1" to="-676961903"/>
    <trip id="96" depart="96.00" from="-497061645" to="756109920#9"/>
    <trip id="97" depart="97.00" from="1487797267" to="695035080#4"/>
    <trip id="98" depart="98.00" from="28932333#0" to="-1489484050"/>
    <trip id="99" depart="99.00" from="997134234#0" to="654859816#1"/>
    <trip id="100" depart="100.00" from="830697314#1" to="757025999#1"/>
    <trip id="101" depart="101.00" from="674374045" to="-485997876#11"/>
    <trip id="102" depart="102.00" from="18613717#0" to="-496038074"/>
    <trip id="103" depart="103.00" from="1174206906" to="-1497786780"/>
    <trip id="104" depart="104.00" from="1052584092#0" to="938327843#1"/>
    <trip id="105" depart="105.00" from="-556967383#4" to="508138528#1"/>
    <trip id="106" depart="106.00" from="1492846114" to="1450810119#0"/>
    <trip id="107" depart="107.00" from="765634131#5" to="981130218#0"/>
    <trip id="108" depart="108.00" from="28932376" to="494646712#1"/>
    <trip id="109" depart="109.00" from="-31450206#0" to="-749996293"/>
    <trip id="110" depart="110.00" from="830694366#2" to="28948431#4"/>
    <trip id="111" depart="111.00" from="28799340#4" to="496804893#1"/>
    <trip id="112" depart="112.00" from="-1490273031#11" to="29068602#1"/>
    <trip id="113" depart="113.00" from="28225328#0" to="688536587"/>
    <trip id="114" depart="114.00" from="-31602564#0" to="776905974#1"/>
    <trip id="115" depart="115.00" from="-28696722#2" to="-492482602"/>
    <trip id="116" depart="116.00" from="29174461#6" to="487370385#5"/>
    <trip id="117" depart="117.00" from="-496643315#0" to="-28948330#0"/>
    <trip id="118" depart="118.00" from="736720472#12" to="-497093800#0"/>
    <trip id="119" depart="119.00" from="29174461#11" to="31593642#2"/>
    <trip id="120" depart="120.00" from="1289195652#2" to="29068600#0"/>
    <trip id="121" depart="121.00" from="28760128#0" to="760123040#0"/>
    <trip id="122" depart="122.00" from="-493563826#2" to="493594336#1"/>
    <trip id="123" depart="123.00" from="-496829898#1" to="1243496203#0"/>
    <trip id="124" depart="124.00" from="485243029" to="-753796354"/>
    <trip id="125" depart="125.00" from="-758987629#0" to="496829912#0"/>
    <trip id="126" depart="126.00" from="-18570810#8" to="156922090#1"/>
    <trip id="127" depart="127.00" from="993586049#0" to="983550282"/>
    <trip id="128" depart="128.00" from="-18577339#6" to="-496038066#0"/>
    <trip id="129" depart="129.00" from="-556967383#4" to="759634951#1"/>
    <trip id="130" depart="130.00" from="732561673#2" to="732754491#1"/>
    <trip id="131" depart="131.00" from="101921542#1" to="-475702871#1"/>
    <trip id="132" depart="132.00" from="631753738" to="492945073#1"/>
    <trip id="133" depart="133.00" from="31295141#4" to="949917512"/>
    <trip id="134" depart="134.00" from="453455937#1" to="-1008283827"/>
    <trip id="135" depart="135.00" from="566897129" to="-753339915"/>
    <trip id="136" depart="136.00" from="466611287#0" to="761304616#0"/>
    <trip id="137" depart="137.00" from="-29068604" to="-28934640#0"/>
    <trip id="138" depart="138.00" from="-28932802#2" to="28932799#3"/>
    <trip id="139" depart="139.00" from="-568042675#5" to="31295247#2"/>
    <trip id="140" depart="140.00" from="493564363#1" to="-494646712#1"/>
    <trip id="141" depart="141.00" from="344669293#0" to="-558777970#1"/>
    <trip id="142" depart="142.00" from="192696454#1" to="749672157-AddedOnRampEdge"/>
    <trip id="143" depart="143.00" from="674365839" to="-28874829#0"/>
    <trip id="144" depart="144.00" from="1296688839#7" to="-675950801"/>
    <trip id="145" depart="145.00" from="-1001361831#35" to="497108847"/>
    <trip id="146" depart="146.00" from="35344189#0" to="-557233213#5"/>
    <trip id="147" depart="147.00" from="496078559#2" to="28932708#20"/>
    <trip id="148" depart="148.00" from="1343927362" to="-101677169#3"/>
    <trip id="149" depart="149.00" from="-193669524#4" to="735444562#1"/>
    <trip id="150" depart="150.00" from="748549680" to="28932369#1"/>
    <trip id="151" depart="151.00" from="632756758#2" to="29068594#1"/>
    <trip id="152" depart="152.00" from="-31295290#6" to="-29068592#6"/>
    <trip id="153" depart="153.00" from="-752899660" to="746898675#2"/>
    <trip id="154" depart="154.00" from="520933398#0" to="692793926#6"/>
    <trip id="155" depart="155.00" from="742767568#1" to="-495395286#0"/>
    <trip id="156" depart="156.00" from="-497061643#0" to="-28934528#3"/>
    <trip id="157" depart="157.00" from="497108888#0" to="736720471#12"/>
    <trip id="158" depart="158.00" from="1219280790#1" to="31602591#0"/>
    <trip id="159" depart="159.00" from="-31450205#0" to="758705254#1"/>
    <trip id="160" depart="160.00" from="691955844" to="892524593"/>
    <trip id="161" depart="161.00" from="557193627#0" to="732795310#1"/>
    <trip id="162" depart="162.00" from="-1088748079" to="496584792"/>
    <trip id="163" depart="163.00" from="-880881326#0" to="758720476#2"/>
    <trip id="164" depart="164.00" from="540382604#1" to="700316061"/>
    <trip id="165" depart="165.00" from="557193627#0" to="-594801525#1"/>
    <trip id="166" depart="166.00" from="500045668#2" to="-28934570#1"/>
    <trip id="167" depart="167.00" from="711243604#0" to="691909350#1"/>
    <trip id="168" depart="168.00" from="-496041076#0" to="594801551#1"/>
    <trip id="169" depart="169.00" from="1497194118" to="-758720476#3"/>
    <trip id="170" depart="170.00" from="512727084#2" to="-496643300"/>
    <trip id="171" depart="171.00" from="-1081357782" to="-492955936#0"/>
    <trip id="172" depart="172.00" from="-828327639" to="700328775"/>
    <trip id="173" depart="173.00" from="824746571#3" to="-700016227#0"/>
    <trip id="174" depart="174.00" from="372816393#2" to="1252757130#1"/>
    <trip id="175" depart="175.00" from="914679594" to="28874827#22"/>
    <trip id="176" depart="176.00" from="760163851" to="-28934639"/>
    <trip id="177" depart="177.00" from="830969373" to="-491571537#0"/>
    <trip id="178" depart="178.00" from="776653965#2" to="-583897565#0"/>
    <trip id="179" depart="179.00" from="-28934533#1" to="1488407796"/>
    <trip id="180" depart="180.00" from="494646845#1" to="-765424162"/>
    <trip id="181" depart="181.00" from="29858774#1" to="28760110#5"/>
    <trip id="182" depart="182.00" from="109069458#1" to="28948370"/>
    <trip id="183" depart="183.00" from="-497108755#1" to="492962276#1"/>
    <trip id="184" depart="184.00" from="-1001361831#15" to="756641894"/>
    <trip id="185" depart="185.00" from="28780860#3" to="494646772#0"/>
    <trip id="186" depart="186.00" from="496566853#0" to="486033738"/>
    <trip id="187" depart="187.00" from="100992866#2" to="-192756755"/>
    <trip id="188" depart="188.00" from="467749624#2" to="-945061286"/>
    <trip id="189" depart="189.00" from="-758704354#0" to="68558044#12"/>
    <trip id="190" depart="190.00" from="493594314" to="-753801944#1"/>
    <trip id="191" depart="191.00" from="-753794939#0" to="1294666538#3"/>
    <trip id="192" depart="192.00" from="1184964047" to="-749322079"/>
    <trip id="193" depart="193.00" from="-28948360#1" to="1377621015"/>
    <trip id="194" depart="194.00" from="760535346#1" to="488422336#3"/>
    <trip id="195" depart="195.00" from="746845404" to="31450208#0"/>
    <trip id="196" depart="196.00" from="-736957430#1" to="28932382#5"/>
    <trip id="197" depart="197.00" from="-100016660#1" to="-732777701"/>
    <trip id="198" depart="198.00" from="1369734221" to="28948435#0"/>
    <trip id="199" depart="199.00" from="453455941#10" to="18058331#0"/>
    <trip id="200" depart="200.00" from="1487712504" to="-496038074"/>
    <trip id="201" depart="201.00" from="18056345#5" to="749321608#0"/>
    <trip id="202" depart="202.00" from="519471547#1" to="-487370245#0"/>
    <trip id="203" depart="203.00" from="-28760116#0" to="28773401#1"/>
    <trip id="204" depart="204.00" from="343915038#4" to="-974944822"/>
    <trip id="205" depart="205.00" from="568042675#3" to="496829902"/>
    <trip id="206" depart="206.00" from="485246606#4" to="-496601788#0"/>
    <trip id="207" depart="207.00" from="-492945102#1" to="-1108775457"/>
    <trip id="208" depart="208.00" from="-496830090#0" to="18613710#1"/>
    <trip id="209" depart="209.00" from="675981608#1" to="-273202552#3"/>
    <trip id="210" depart="210.00" from="1263630842" to="37018607-AddedOffRampEdge"/>
    <trip id="211" depart="211.00" from="-492512063#1" to="492482606"/>
    <trip id="212" depart="212.00" from="248618360#4" to="-497061649#1"/>
    <trip id="213" depart="213.00" from="455042921#0" to="-100639074#0"/>
    <trip id="214" depart="214.00" from="496626591#1" to="497108755#0"/>
    <trip id="215" depart="215.00" from="-28932800#1" to="1485127573"/>
    <trip id="216" depart="216.00" from="-487370340" to="768027248#2"/>
    <trip id="217" depart="217.00" from="28756544#1" to="-1489472139"/>
    <trip id="218" depart="218.00" from="-497061642#1" to="68558044#3"/>
    <trip id="219" depart="219.00" from="1493092667" to="556967374"/>
    <trip id="220" depart="220.00" from="482380358#2" to="949943795"/>
    <trip id="221" depart="221.00" from="29713020#0" to="762921400"/>
    <trip id="222" depart="222.00" from="736720472#6" to="31298850#1"/>
    <trip id="223" depart="223.00" from="493578201#4" to="28715631#1"/>
    <trip id="224" depart="224.00" from="630134594#1" to="28932382#4"/>
    <trip id="225" depart="225.00" from="738095685#5" to="496626603"/>
    <trip id="226" depart="226.00" from="18070225#0" to="-557184653"/>
    <trip id="227" depart="227.00" from="-497061619#0" to="449551297#4"/>
    <trip id="228" depart="228.00" from="497048626#1" to="28773417#5"/>
    <trip id="229" depart="229.00" from="31593605#0" to="-674369533"/>
    <trip id="230" depart="230.00" from="-273202552#2" to="-732746687"/>
    <trip id="231" depart="231.00" from="-558777970#1" to="-866833754#2"/>
    <trip id="232" depart="232.00" from="28799327#1" to="-29858773#7"/>
    <trip id="233" depart="233.00" from="-496601814#0" to="492248010"/>
    <trip id="234" depart="234.00" from="492512045#4" to="-18058331#1"/>
    <trip id="235" depart="235.00" from="1239781918#1" to="28932340#3"/>
    <trip id="236" depart="236.00" from="1263664034#0" to="-494646838#0"/>
    <trip id="237" depart="237.00" from="1289621537#1" to="749501463#1"/>
    <trip id="238" depart="238.00" from="28948357#0" to="492464872"/>
    <trip id="239" depart="239.00" from="688527412#14" to="497061654#1"/>
    <trip id="240" depart="240.00" from="1055379170#1" to="-100639074#3"/>
    <trip id="241" depart="241.00" from="-989270679" to="496829921#0"/>
    <trip id="242" depart="242.00" from="68558044#10" to="764070766#0"/>
    <trip id="243" depart="243.00" from="1289178498#0" to="496643317#1"/>
    <trip id="244" depart="244.00" from="28874831#1" to="31295141#5"/>
    <trip id="245" depart="245.00" from="-496038078" to="-496584781#1"/>
    <trip id="246" depart="246.00" from="1457110451" to="-1177541155"/>
    <trip id="247" depart="247.00" from="-914683357#1" to="490860286#0"/>
    <trip id="248" depart="248.00" from="1212792330#1" to="-485992574#1"/>
    <trip id="249" depart="249.00" from="158980707#0" to="-29068592#7"/>
    <trip id="250" depart="250.00" from="31382688#0" to="-1118023288#3"/>
    <trip id="251" depart="251.00" from="1109069790" to="28934623#1"/>
    <trip id="252" depart="252.00" from="-1109069788" to="452354253#6"/>
    <trip id="253" depart="253.00" from="-29849302#4" to="18056345#16"/>
    <trip id="254" depart="254.00" from="-1487815654" to="1108775454"/>
    <trip id="255" depart="255.00" from="-494646741" to="-915737939"/>
    <trip id="256" depart="256.00" from="496829923#2" to="1108775454"/>
    <trip id="257" depart="257.00" from="496626623#3" to="636729730#10"/>
    <trip id="258" depart="258.00" from="-497093788#1" to="-28773414"/>
    <trip id="259" depart="259.00" from="-1049279021" to="28908034"/>
    <trip id="260" depart="260.00" from="999442105" to="1008278380#0"/>
    <trip id="261" depart="261.00" from="450695543#4" to="501559901"/>
    <trip id="262" depart="262.00" from="452609027#0" to="496829978#0"/>
    <trip id="263" depart="263.00" from="762088751" to="-493594320#3"/>
    <trip id="264" depart="264.00" from="-1051199053" to="-31593661#1"/>
    <trip id="265" depart="265.00" from="-28948356#1" to="485997876#19"/>
    <trip id="266" depart="266.00" from="28934532#0" to="-496566840#0"/>
    <trip id="267" depart="267.00" from="491571763#6" to="497093775#4"/>
    <trip id="268" depart="268.00" from="-485856252#0" to="31295290#4"/>
    <trip id="269" depart="269.00" from="496601785" to="-28934634#3"/>
    <trip id="270" depart="270.00" from="578021537#2" to="824746571#3"/>
    <trip id="271" depart="271.00" from="-28934532#0" to="-1109069788"/>
    <trip id="272" depart="272.00" from="-758389001" to="489513473"/>
    <trip id="273" depart="273.00" from="765858933#1" to="1249895911#4"/>
    <trip id="274" depart="274.00" from="492962273#0" to="-28696762#0"/>
    <trip id="275" depart="275.00" from="491495125#3" to="35309824#3"/>
    <trip id="276" depart="276.00" from="-28932352#3" to="497108885"/>
    <trip id="277" depart="277.00" from="676439512#0" to="31255670#2"/>
    <trip id="278" depart="278.00" from="-28940711#4" to="929603370"/>
    <trip id="279" depart="279.00" from="497546905#1" to="1005518734#1"/>
    <trip id="280" depart="280.00" from="1369613263#1" to="1081357415#1"/>
    <trip id="281" depart="281.00" from="28696833" to="1001007703#6"/>
    <trip id="282" depart="282.00" from="675977267#0" to="594917748"/>
    <trip id="283" depart="283.00" from="-28932701#0" to="776905974#1"/>
    <trip id="284" depart="284.00" from="35309648#0" to="632756758#3"/>
    <trip id="285" depart="285.00" from="492512065#1" to="1488617574"/>
    <trip id="286" depart="286.00" from="495428589#9" to="829059846"/>
    <trip id="287" depart="287.00" from="-557233218#6" to="557265649"/>
    <trip id="288" depart="288.00" from="28780859" to="199031144"/>
    <trip id="289" depart="289.00" from="1454323043" to="496038126#0"/>
    <trip id="290" depart="290.00" from="-557233207#1" to="688527412#3"/>
    <trip id="291" depart="291.00" from="630134595#0" to="-28780855#0"/>
    <trip id="292" depart="292.00" from="732687573" to="-497061649#0"/>
    <trip id="293" depart="293.00" from="155107723#3" to="31295357#1"/>
    <trip id="294" depart="294.00" from="1052584092#0" to="-1174241975"/>
    <trip id="295" depart="295.00" from="676481877" to="-491571727"/>
    <trip id="296" depart="296.00" from="-494646768#0" to="556928954#3"/>
    <trip id="297" depart="297.00" from="-933100540" to="732777709"/>
    <trip id="298" depart="298.00" from="492248003" to="-674374091#0"/>
    <trip id="299" depart="299.00" from="-101677169#3" to="762115406#1"/>
    <trip id="300" depart="300.00" from="-28760120#0" to="494646796#1"/>
    <trip id="301" depart="301.00" from="192755826#1" to="496830107"/>
    <trip id="302" depart="302.00" from="491495125#3" to="453455941#12"/>
    <trip id="303" depart="303.00" from="193669524#6" to="530269403#1"/>
    <trip id="304" depart="304.00" from="-28799330#2" to="-496584800#1"/>
    <trip id="305" depart="305.00" from="491495140#3" to="-758987630"/>
    <trip id="306" depart="306.00" from="28948337" to="18570813#1"/>
    <trip id="307" depart="307.00" from="28773419#0" to="1485547712"/>
    <trip id="308" depart="308.00" from="496601753#0" to="-949380542"/>
    <trip id="309" depart="309.00" from="492263526#2" to="-594925181#1"/>
    <trip id="310" depart="310.00" from="-497093768" to="-28948340"/>
    <trip id="311" depart="311.00" from="-492499534" to="-28940759#2"/>
    <trip id="312" depart="312.00" from="28773432#3" to="497061620#1"/>
    <trip id="313" depart="313.00" from="-491571600#3" to="-496041076#5"/>
    <trip id="314" depart="314.00" from="18613710#3" to="495395167"/>
    <trip id="315" depart="315.00" from="880881326#1" to="28773423#2"/>
    <trip id="316" depart="316.00" from="-674369535" to="-28932692#3"/>
    <trip id="317" depart="317.00" from="-492512061#2" to="-496626623#3"/>
    <trip id="318" depart="318.00" from="-490860286#1" to="-1036703936#1"/>
    <trip id="319" depart="319.00" from="28773426#3" to="-674365417#1"/>
    <trip id="320" depart="320.00" from="868919194#1" to="28932800#0"/>
    <trip id="321" depart="321.00" from="491571723#0" to="-28948439#0"/>
    <trip id="322" depart="322.00" from="696175332#1" to="28215812#0"/>
    <trip id="323" depart="323.00" from="711243606#1" to="28948356#0"/>
    <trip id="324" depart="324.00" from="18056190#0" to="1490273030#2"/>
    <trip id="325" depart="325.00" from="-491571539#1" to="-1489558552"/>
    <trip id="326" depart="326.00" from="760597510#0" to="18640747#3"/>
    <trip id="327" depart="327.00" from="594801525#0" to="1252899185#2"/>
    <trip id="328" depart="328.00" from="-18640747#0" to="37018604#2"/>
    <trip id="329" depart="329.00" from="-1489472134" to="-31450201#2"/>
    <trip id="330" depart="330.00" from="28932802#2" to="-758704354#0"/>
    <trip id="331" depart="331.00" from="974563050#0" to="-28940750#3"/>
    <trip id="332" depart="332.00" from="496830090#1" to="31295274#21"/>
    <trip id="333" depart="333.00" from="508138528#1" to="-496626534"/>
    <trip id="334" depart="334.00" from="28760125" to="1497076548"/>
    <trip id="335" depart="335.00" from="1487791749" to="692793926#1"/>
    <trip id="336" depart="336.00" from="952170323" to="-758720476#5"/>
    <trip id="337" depart="337.00" from="31297213#2" to="31295350#7"/>
    <trip id="338" depart="338.00" from="496041077" to="762107133"/>
    <trip id="339" depart="339.00" from="-493594330#0" to="-495401452"/>
    <trip id="340" depart="340.00" from="458897492#1" to="-45759131#5"/>
    <trip id="341" depart="341.00" from="-487370233" to="-28245898#4"/>
    <trip id="342" depart="342.00" from="-1001361831#25" to="1495682145"/>
    <trip id="343" depart="343.00" from="29068604" to="-736720472#4"/>
    <trip id="344" depart="344.00" from="-496601815#0" to="492962092#2"/>
    <trip id="345" depart="345.00" from="492271094#1" to="153748532#0"/>
    <trip id="346" depart="346.00" from="490051067#1" to="756138856#0"/>
    <trip id="347" depart="347.00" from="500045668#7" to="344669293#0"/>
    <trip id="348" depart="348.00" from="458897499#0" to="759648343#1"/>
    <trip id="349" depart="349.00" from="1299095343#7" to="28932354#0"/>
    <trip id="350" depart="350.00" from="449551312" to="750643650#0"/>
    <trip id="351" depart="351.00" from="594889808#1" to="-197368793#6"/>
    <trip id="352" depart="352.00" from="-485238528" to="-760517046"/>
    <trip id="353" depart="353.00" from="496601799#5" to="28940728#5"/>
    <trip id="354" depart="354.00" from="-700316060" to="-28948420#0"/>
    <trip id="355" depart="355.00" from="491242330#3" to="492512064"/>
    <trip id="356" depart="356.00" from="761304616#1" to="28697246#2"/>
    <trip id="357" depart="357.00" from="229362109#0" to="-28760119#3"/>
    <trip id="358" depart="358.00" from="-1352006477" to="1487759035"/>
    <trip id="359" depart="359.00" from="-762950610" to="-497108883#0"/>
    <trip id="360" depart="360.00" from="-28773435#1" to="791194727#1"/>
    <trip id="361" depart="361.00" from="636067319#0" to="28948360#0"/>
    <trip id="362" depart="362.00" from="762115000" to="997134234#4"/>
    <trip id="363" depart="363.00" from="485246605" to="-594851906#1"/>
    <trip id="364" depart="364.00" from="-1360808898" to="496830031#2"/>
    <trip id="365" depart="365.00" from="18056345#15" to="458897492#1"/>
    <trip id="366" depart="366.00" from="752895694#10" to="-491571702#1"/>
    <trip id="367" depart="367.00" from="28948366" to="384642556#1"/>
    <trip id="368" depart="368.00" from="197368793#0" to="-28874827#20"/>
    <trip id="369" depart="369.00" from="-974939841" to="-968021458"/>
    <trip id="370" depart="370.00" from="484156758#2" to="690361041#7"/>
    <trip id="371" depart="371.00" from="-837182072#9" to="492248004#1"/>
    <trip id="372" depart="372.00" from="-700016227#4" to="762071391"/>
    <trip id="373" depart="373.00" from="557233217#0" to="28932706#1"/>
    <trip id="374" depart="374.00" from="1492737006" to="-774129902"/>
    <trip id="375" depart="375.00" from="-763447261#1" to="837182072#7"/>
    <trip id="376" depart="376.00" from="1212792330#0" to="28760128#4"/>
    <trip id="377" depart="377.00" from="949371698#0" to="4705046#6"/>
    <trip id="378" depart="378.00" from="28801011#1" to="1303223065#1"/>
    <trip id="379" depart="379.00" from="-491571723#1" to="1042927865#2"/>
    <trip id="380" depart="380.00" from="496829877" to="344669293#2"/>
    <trip id="381" depart="381.00" from="496829918#2" to="-494646712#0"/>
    <trip id="382" depart="382.00" from="28926411" to="758106155"/>
    <trip id="383" depart="383.00" from="1485752238" to="492512023#5"/>
    <trip id="384" depart="384.00" from="-28940728#2" to="872868375#2"/>
    <trip id="385" depart="385.00" from="31255670#3" to="-497061603"/>
    <trip id="386" depart="386.00" from="-35309653#0" to="28932708#13"/>
    <trip id="387" depart="387.00" from="28932344#0" to="-28875328#1"/>
    <trip id="388" depart="388.00" from="954805254" to="752899642"/>
    <trip id="389" depart="389.00" from="1497382972" to="-28940739"/>
    <trip id="390" depart="390.00" from="630154039#1" to="28697231#0"/>
    <trip id="391" depart="391.00" from="493563825#3" to="28718925#7"/>
    <trip id="392" depart="392.00" from="-594008598#0" to="654671456"/>
    <trip id="393" depart="393.00" from="914457464#1" to="-497061647"/>
    <trip id="394" depart="394.00" from="28932340#2" to="1117745653#1"/>
    <trip id="395" depart="395.00" from="754648105#1" to="28718913#5"/>
    <trip id="396" depart="396.00" from="729070163" to="700016227#6"/>
    <trip id="397" depart="397.00" from="-594820801" to="520933398#1"/>
    <trip id="398" depart="398.00" from="1263664032#1" to="759659058#1"/>
    <trip id="399" depart="399.00" from="28697231#16" to="594854071"/>
    <trip id="400" depart="400.00" from="-674369533" to="-752899921"/>
    <trip id="401" depart="401.00" from="28948422#0" to="997087974"/>
    <trip id="402" depart="402.00" from="192755826#4" to="-31450199#2"/>
    <trip id="403" depart="403.00" from="28780860#4" to="1001381429#0"/>
    <trip id="404" depart="404.00" from="28932341#0" to="28932343#1"/>
    <trip id="405" depart="405.00" from="1492868076#1" to="-892524592#0"/>
    <trip id="406" depart="406.00" from="-492012173#0" to="492512018#1"/>
    <trip id="407" depart="407.00" from="28934608#4" to="-496829914#0"/>
    <trip id="408" depart="408.00" from="497093800#2" to="-1486145612"/>
    <trip id="409" depart="409.00" from="496584797#2" to="492945102#0"/>